data_crystal

_cell_length_a 28.38730
_cell_length_b 12.32170
_cell_length_c 12.78780
_cell_angle_alpha 75.24080
_cell_angle_beta  103.92780
_cell_angle_gamma 95.93910

_symmetry_space_group_name_	'P 1'
_symmetry_space_group_name_H-M	'P 1'

loop_
_symmetry_equiv_pos_as_xyz
  x,y,z

loop_
_atom_site_label
_atom_site_type_symbol
_atom_site_fract_x
_atom_site_fract_y
_atom_site_fract_z
_atom_site_charge
O 	O 	0.34968 0.78252 0.00945 -0.41900
O 	O 	0.37499 0.93986 0.91064 -0.28400
O 	O 	0.45095 0.78041 0.21627 -0.44800
O 	O 	0.43975 0.92516 0.27147 -0.36800
O 	O 	0.32861 0.99040 0.09451 -0.42700
O 	O 	0.39569 1.02677 0.19952 -0.31700
C 	C 	0.33461 0.66214 0.26066 0.27900
Dy	Dy	0.38514 0.87051 0.13842 2.03800
O 	O 	0.34723 0.77196 0.26936 -0.39300
O 	O 	0.36264 0.58882 0.31259 -0.17600
C 	C 	0.35237 0.84460 -0.08574 0.27100
C 	C 	0.46689 0.84459 0.28234 0.29300
C 	C 	0.35414 1.06173 0.14383 0.24900
O 	O 	0.97012 0.61158 0.59019 -0.42700
O 	O 	0.99525 0.47480 0.53911 -0.17300
O 	O 	0.96850 0.82596 0.69730 -0.44300
O 	O 	0.96575 0.66752 0.80083 -0.37300
O 	O 	0.85925 0.71413 0.72387 -0.31100
O 	O 	0.91137 0.59060 0.80177 -0.30000
C 	C 	0.85707 0.90586 0.56255 0.24600
Dy	Dy	0.91534 0.69590 0.63476 1.96200
O 	O 	0.85938 0.80834 0.64814 -0.28700
O 	O 	0.89101 -0.06711 0.51631 -0.28300
C 	C 	0.96300 0.51307 0.57202 0.27400
C 	C 	0.98455 0.76488 0.79184 0.35600
C 	C 	0.87356 0.63330 0.80788 0.26800
O 	O 	0.04584 0.09487 0.39920 -0.32700
O 	O 	0.06994 0.13628 0.56264 -0.24400
O 	O 	0.10268 0.05118 0.22947 -0.31600
O 	O 	0.04664 0.06286 0.30822 -0.26600
O 	O 	0.14140 0.17629 0.26761 -0.30600
O 	O 	0.13270 0.23580 0.39863 -0.35500
C 	C 	0.22785 -0.03381 0.44143 0.25500
Dy	Dy	0.12177 0.05111 0.41206 1.77200
O 	O 	0.20257 0.02990 0.48346 -0.38600
O 	O 	0.25773 0.90212 0.50412 -0.13800
C 	C 	0.03660 0.13263 0.47674 0.27800
C 	C 	0.05702 0.05963 0.21726 0.21400
C 	C 	0.14233 0.26124 0.30488 0.32300
O 	O 	0.53225 0.17151 0.76941 -0.46800
O 	O 	0.54484 -0.00442 -0.21770 -0.25600
O 	O 	0.59704 0.39395 0.75816 -0.35200
O 	O 	0.60306 0.30651 0.64409 -0.28600
O 	O 	0.68791 0.20289 0.82320 -0.29000
O 	O 	0.63523 0.18355 0.67960 -0.28900
C 	C 	0.69532 0.38948 0.88656 0.19200
Dy	Dy	0.61025 0.21236 0.82211 1.86900
O 	O 	0.68771 0.27255 0.89531 -0.24000
O 	O 	0.69564 0.45142 0.79583 -0.09200
C 	C 	0.51588 0.07466 0.75801 0.35200
C 	C 	0.59566 0.39963 0.65856 0.31300
C 	C 	0.68008 0.18085 0.72792 0.25600
C 	C 	0.28653 0.63378 0.19661 -0.03200
C 	C 	0.25971 0.71668 0.11474 -0.03000
C 	C 	0.21444 0.68928 1.05172 0.12300
N 	N 	0.18901 0.77224 0.96258 -0.18900
C 	C 	0.19408 0.58018 1.07762 -0.02400
C 	C 	0.21977 0.49660 0.16109 0.02900
C 	C 	0.19692 0.37963 0.19096 0.44700
F 	F 	0.23131 0.30743 0.26316 -0.40300
F 	F 	0.18059 0.34054 1.09532 -0.33600
C 	C 	0.15382 0.37776 0.24538 0.34800
F 	F 	0.11294 0.41514 0.16492 -0.37800
F 	F 	0.16432 0.44662 0.31942 -0.39100
C 	C 	0.26659 0.52375 0.21885 0.04600
H 	H 	0.27446 0.80225 1.09731 0.05100
H 	H 	0.20448 0.85316 0.94051 0.12400
H 	H 	0.15481 0.75319 0.91731 0.11700
H 	H 	0.15850 0.56024 1.03114 0.12000
H 	H 	0.28690 0.46010 0.28430 0.11700
C 	C 	0.81375 -0.02646 0.52596 -0.01500
C 	C 	0.80173 0.03585 0.41521 -0.05300
C 	C 	0.76033 0.09917 0.37685 0.10900
N 	N 	0.74601 0.15460 0.26195 -0.19300
C 	C 	0.73205 0.10625 0.45056 -0.03400
C 	C 	0.74326 0.04499 0.56174 0.02000
C 	C 	0.71046 0.05074 0.63782 0.43200
F 	F 	0.71766 -0.03915 0.73034 -0.38200
F 	F 	0.66271 0.04143 0.58077 -0.40400
C 	C 	0.71983 0.16153 0.67670 0.38000
F 	F 	0.72299 0.25284 0.58913 -0.36100
F 	F 	0.76347 0.15672 0.75435 -0.34500
C 	C 	0.78409 -0.02288 0.59880 0.02600
H 	H 	0.82357 0.03022 0.35799 0.07100
H 	H 	0.76614 0.14867 0.20503 0.13000
H 	H 	0.71411 0.19860 0.23282 0.14800
H 	H 	0.70017 0.15642 0.42026 0.12000
H 	H 	0.79304 -0.07192 0.68406 0.11600
C 	C 	0.22391 0.98608 0.32277 -0.05300
C 	C 	0.19004 0.92090 0.26460 -0.03100
C 	C 	0.18424 0.94020 0.15065 0.10500
N 	N 	0.14488 0.88243 0.09297 -0.13400
C 	C 	0.21330 1.02276 0.09437 -0.01300
C 	C 	0.24972 1.08610 0.15270 0.00500
C 	C 	0.27987 1.17933 0.09057 0.45000
F 	F 	0.26592 1.28131 0.09495 -0.31900
F 	F 	0.27054 1.17606 -0.02042 -0.37200
C 	C 	0.33550 1.17448 0.13516 0.37300
F 	F 	0.35772 1.25547 0.06288 -0.33000
F 	F 	0.34882 1.19853 0.23804 -0.37300
C 	C 	0.25383 1.06837 0.26790 0.04200
H 	H 	0.16607 0.85985 0.30600 0.03600
H 	H 	0.13031 0.91296 0.00886 0.05700
H 	H 	0.13051 0.91383 1.00843 0.04600
H 	H 	0.20627 1.03837 0.00485 0.11300
H 	H 	0.27823 1.12076 0.31424 0.11100
C 	C 	0.85134 0.59803 0.90435 -0.00000
C 	C 	0.88135 0.56238 1.00993 -0.04100
C 	C 	0.86158 0.52900 0.10362 0.11100
N 	N 	0.89252 0.49482 0.21104 -0.19600
C 	C 	0.81133 0.52850 0.09172 -0.02900
C 	C 	0.78032 0.56257 0.98622 0.00800
C 	C 	0.72595 0.55772 0.97681 0.43900
F 	F 	0.70249 0.62604 0.87781 -0.35500
F 	F 	0.71729 0.59854 0.06177 -0.35800
C 	C 	0.70373 0.43452 0.98884 0.38700
F 	F 	0.65932 0.43014 1.01722 -0.37000
F 	F 	0.73366 0.36232 1.07370 -0.42300
C 	C 	0.80078 0.59893 0.89228 0.02000
H 	H 	0.92023 0.56137 1.01948 0.09000
H 	H 	0.93004 0.49298 0.22070 0.11700
H 	H 	0.87792 0.46894 0.28110 0.13400
H 	H 	0.79625 0.50060 0.16494 0.11800
H 	H 	0.77766 0.62513 0.81042 0.11000
C 	C 	0.51395 0.82750 0.36092 -0.01400
C 	C 	0.55366 0.89889 0.33847 -0.03800
C 	C 	0.60024 0.87437 0.40422 0.13300
N 	N 	0.64135 0.94154 0.37530 -0.18000
C 	C 	0.60655 0.77977 0.49385 -0.01800
C 	C 	0.56672 0.70765 0.51681 0.02700
C 	C 	0.57441 0.60236 0.60998 0.43900
F 	F 	0.53264 0.57233 0.65080 -0.37700
F 	F 	0.61161 0.62265 0.69634 -0.35200
C 	C 	0.58720 0.50418 0.56847 0.36700
F 	F 	0.62894 0.53202 0.52890 -0.36500
F 	F 	0.54955 0.48114 0.48501 -0.37100
C 	C 	0.52034 0.73149 0.44871 0.03400
H 	H 	0.54826 0.97001 0.26710 0.06900
H 	H 	0.63712 1.00869 0.30492 0.11000
H 	H 	0.67646 0.91989 0.42006 0.12800
H 	H 	0.64264 0.76113 0.54339 0.13600
H 	H 	0.48932 0.67501 0.46292 0.11300
C 	C 	1.01622 0.80202 0.88728 -0.08300
C 	C 	0.03315 0.71918 0.98374 -0.01800
C 	C 	0.04645 0.74557 0.08677 0.09000
N 	N 	0.05628 0.65838 0.18518 -0.19300
C 	C 	0.04517 0.85613 0.09346 -0.02500
C 	C 	0.03373 0.94365 -0.00268 -0.01900
C 	C 	0.03559 0.06559 0.00683 0.44200
F 	F 	0.00495 0.12636 -0.08702 -0.33400
F 	F 	0.08190 0.11306 0.00886 -0.37400
C 	C 	0.01950 0.08189 0.10920 0.37800
F 	F 	0.00841 0.19391 0.08804 -0.32800
F 	F 	-0.02260 0.01683 0.12201 -0.39700
C 	C 	0.01952 0.91538 0.89312 0.05800
H 	H 	1.03121 0.63162 0.98099 0.09000
H 	H 	0.04195 0.65937 0.25370 0.11300
H 	H 	0.07482 0.58798 0.18796 0.16000
H 	H 	0.05396 0.87243 0.17430 0.05700
H 	H 	0.00709 -0.02081 0.81850 0.09400
C 	C 	0.46326 0.05428 0.71829 -0.04800
C 	C 	0.43494 0.14549 0.65709 -0.03100
C 	C 	0.38515 0.12840 0.61525 0.13100
N 	N 	0.35679 0.22112 0.54858 -0.18700
C 	C 	0.36342 0.02015 0.63855 -0.04500
C 	C 	0.39077 0.92799 0.70415 0.00900
C 	C 	0.36593 0.81228 0.73549 0.44100
F 	F 	0.39987 0.73239 0.79234 -0.37700
F 	F 	0.34162 0.78120 0.63933 -0.35300
C 	C 	0.32924 0.80816 0.80906 0.35700
F 	F 	0.30964 0.69930 0.83537 -0.32400
F 	F 	0.29086 0.87766 0.75150 -0.38400
C 	C 	0.44120 -0.05403 0.74197 0.01900
H 	H 	0.45183 0.22921 0.64063 0.10000
H 	H 	0.37232 0.30254 0.53365 0.15100
H 	H 	0.32017 0.20907 0.51201 0.14600
H 	H 	0.32498 1.00918 0.60616 0.13000
H 	H 	0.46330 0.87668 -0.20695 0.10000
C 	C 	-0.01176 0.17532 0.46425 -0.00200
C 	C 	0.95260 0.17678 0.36663 -0.06200
C 	C 	0.90728 0.22010 0.35243 0.11400
N 	N 	0.87169 0.22428 0.25112 -0.19900
C 	C 	0.89727 0.26234 0.43623 -0.04500
C 	C 	0.93306 0.26673 0.53260 0.00600
C 	C 	0.92185 0.31669 0.62047 0.44300
F 	F 	0.95746 0.29321 0.71779 -0.35800
F 	F 	0.87854 0.26632 0.64441 -0.34400
C 	C 	0.91605 0.44553 0.58273 0.33700
F 	F 	0.89672 0.47665 0.65915 -0.44900
F 	F 	0.88275 0.47277 0.48246 -0.44200
C 	C 	0.97829 0.22106 0.54670 -0.00100
H 	H 	0.96002 0.14628 0.30055 0.11600
H 	H 	0.87952 0.19824 0.18552 0.14000
H 	H 	0.83802 0.25798 0.23916 0.12000
H 	H 	0.86144 0.29248 0.42567 0.11500
H 	H 	0.00604 0.22262 0.62108 0.12500
