data_crystal

_cell_length_a 40.53850
_cell_length_b 19.09340
_cell_length_c 7.95250
_cell_angle_alpha 95.66240
_cell_angle_beta  113.97830
_cell_angle_gamma 89.42940

_symmetry_space_group_name_	'P 1'
_symmetry_space_group_name_H-M	'P 1'

loop_
_symmetry_equiv_pos_as_xyz
  x,y,z

loop_
_atom_site_label
_atom_site_type_symbol
_atom_site_fract_x
_atom_site_fract_y
_atom_site_fract_z
_atom_site_charge
Ni	Ni	0.35827 0.61733 -0.05917 1.09300
Ni	Ni	0.36419 0.77288 0.09716 1.23700
C 	C 	0.38312 0.85887 -0.12076 0.21000
C 	C 	0.31090 0.67229 0.06666 0.41000
C 	C 	0.40387 0.67070 0.29321 0.39400
C 	C 	0.33651 0.85896 0.13155 0.24500
O 	O 	0.38059 0.61955 0.19216 -0.46800
O 	O 	0.36167 0.82724 -0.26411 -0.17600
O 	O 	0.39541 0.82810 0.04651 -0.29400
O 	O 	0.31402 0.62591 -0.05948 -0.45000
O 	O 	0.33453 0.72160 0.15642 -0.41000
O 	O 	0.40216 0.73264 0.24672 -0.44800
O 	O 	0.36109 0.70840 -0.09062 -0.74400
O 	O 	0.32745 0.82160 -0.02729 -0.32500
O 	O 	0.36477 0.83781 0.26325 -0.30700
H 	H 	0.33899 0.71710 0.79461 0.23100
H 	H 	0.38302 0.71279 -0.11959 0.16900
Ni	Ni	0.87789 0.86184 0.51575 1.09400
Ni	Ni	0.86488 0.74106 0.71768 1.23900
C 	C 	0.88178 0.62725 0.51279 0.22800
C 	C 	0.86716 0.88808 0.82651 0.40200
C 	C 	0.93192 0.78982 0.77278 0.41200
C 	C 	0.83541 0.70899 0.85242 0.30600
O 	O 	0.92118 0.85023 0.70408 -0.46900
O 	O 	0.87518 0.63142 0.35055 -0.23000
O 	O 	0.85671 0.65357 0.58258 -0.29200
O 	O 	0.86093 0.91110 0.66603 -0.47300
O 	O 	0.87266 0.82368 0.85780 -0.44200
O 	O 	0.91050 0.73943 0.76004 -0.41400
O 	O 	0.85403 0.78289 0.50880 -0.72200
O 	O 	0.82093 0.73805 0.69981 -0.40500
O 	O 	0.86985 0.70048 0.91040 -0.36500
H 	H 	0.82757 0.79441 0.45770 0.17500
H 	H 	0.85714 0.74995 0.40987 0.16900
Ni	Ni	0.15073 0.14240 0.54609 1.09800
Ni	Ni	0.13964 0.29903 0.48247 1.23400
C 	C 	0.08679 0.37498 0.58546 0.32800
C 	C 	0.18058 0.20486 0.35329 0.40100
C 	C 	0.09113 0.19370 0.27504 0.28700
C 	C 	0.16432 0.38985 0.47256 0.19200
O 	O 	0.11612 0.14599 0.31449 -0.43000
O 	O 	0.07513 0.38407 0.70561 -0.19200
O 	O 	0.12143 0.34699 0.63716 -0.34200
O 	O 	0.18640 0.15943 0.47605 -0.46100
O 	O 	0.15811 0.25451 0.33170 -0.41600
O 	O 	0.09734 0.25668 0.35228 -0.38300
O 	O 	0.15185 0.23139 0.63791 -0.72300
O 	O 	0.17954 0.34732 0.59688 -0.32500
O 	O 	0.13221 0.36952 0.35290 -0.32700
H 	H 	0.17713 0.24220 0.73637 0.19300
H 	H 	0.13543 0.23172 0.70568 0.18700
Ni	Ni	0.63688 0.37087 0.91828 1.11500
Ni	Ni	0.62762 0.21094 0.79708 1.23400
C 	C 	0.56881 0.13294 0.77975 0.33500
C 	C 	0.67576 0.30537 0.74855 0.30500
C 	C 	0.58319 0.30977 0.59913 0.31300
C 	C 	0.65189 0.11849 0.77542 0.20200
O 	O 	0.60742 0.36177 0.67337 -0.40800
O 	O 	0.54170 0.16766 0.72076 -0.15500
O 	O 	0.60186 0.16589 0.90124 -0.32100
O 	O 	0.67638 0.35650 0.87373 -0.41400
O 	O 	0.65326 0.25271 0.69394 -0.33300
O 	O 	0.58810 0.24893 0.65376 -0.35700
O 	O 	0.63610 0.28299 0.97497 -0.71200
O 	O 	0.66523 0.16438 0.91964 -0.32200
O 	O 	0.62291 0.13754 0.64396 -0.30500
H 	H 	0.66000 0.27628 0.08148 0.21600
H 	H 	0.61700 0.28243 1.02658 0.22600
C 	C 	0.27797 0.66925 0.10815 -0.27000
C 	C 	0.26477 0.59635 0.12047 0.12400
C 	C 	0.28624 0.54936 0.24623 -0.01500
C 	C 	0.32510 0.56838 0.37616 -0.14400
C 	C 	0.27026 0.48534 0.26037 0.07200
C 	C 	0.29388 0.43049 0.37469 -0.18500
C 	C 	0.23196 0.47585 0.17976 0.03100
C 	C 	0.21366 0.42402 0.25299 -0.18000
C 	C 	0.21834 0.44895 0.45431 0.46700
F 	F 	0.23717 0.51331 0.51597 -0.40200
F 	F 	0.23879 0.40086 0.57143 -0.42800
C 	C 	0.18209 0.45833 0.47385 0.37200
F 	F 	0.15858 0.49590 0.33676 -0.41500
F 	F 	0.18890 0.49703 0.64063 -0.38200
C 	C 	0.21103 0.52227 0.05167 0.12300
C 	C 	0.17044 0.51395 -0.04621 -0.21900
C 	C 	0.22793 0.57968 0.01862 -0.09400
H 	H 	0.25651 0.69611 -0.00070 0.13700
H 	H 	0.28305 0.70124 0.24082 0.15700
H 	H 	0.34359 0.53743 0.32865 0.06900
H 	H 	0.33202 0.62503 0.38875 0.07400
H 	H 	0.32999 0.55690 0.51852 0.03700
H 	H 	0.28198 0.37653 0.32433 0.09300
H 	H 	0.32024 0.42867 0.36314 0.08000
H 	H 	0.29852 0.44258 0.52206 0.11700
H 	H 	0.22442 0.37074 0.24649 0.09600
H 	H 	0.18467 0.41477 0.16186 0.10300
H 	H 	0.16275 0.46048 -0.12135 0.12300
H 	H 	0.15802 0.52275 0.05421 0.13800
H 	H 	0.15882 0.55278 -0.14836 0.11900
H 	H 	0.21140 0.61543 -0.07724 0.09600
C 	C 	0.86932 0.94062 0.98465 -0.24700
C 	C 	0.83416 0.97832 0.94350 0.08300
C 	C 	0.82357 1.03552 0.83277 0.00800
C 	C 	0.84785 1.06409 0.75016 -0.14000
C 	C 	0.79025 0.06852 0.80524 0.03100
C 	C 	0.77782 0.12864 0.68402 -0.20100
C 	C 	0.76896 0.04685 0.89768 0.04200
C 	C 	0.73401 0.08336 0.87852 -0.20700
C 	C 	0.70015 0.04649 0.71984 0.47200
F 	F 	0.70707 0.97690 0.68063 -0.39200
F 	F 	0.69182 0.07955 0.56078 -0.40500
C 	C 	0.66670 0.04661 0.76568 0.36200
F 	F 	0.67464 0.01889 0.93175 -0.40300
F 	F 	0.64001 0.00361 0.62814 -0.38100
C 	C 	0.78037 0.99002 1.00854 0.07400
C 	C 	0.75949 0.96441 1.11207 -0.12400
C 	C 	0.81213 0.95628 1.02653 -0.09600
H 	H 	0.89240 0.97852 1.02314 0.09400
H 	H 	0.87634 0.91237 1.11019 0.06700
H 	H 	0.85350 0.12122 0.79600 0.06300
H 	H 	0.87444 1.03988 0.79127 0.07700
H 	H 	0.83442 1.05572 0.59674 0.06700
H 	H 	0.74956 0.11886 0.58224 0.15200
H 	H 	0.78016 0.17857 0.77263 0.12600
H 	H 	0.79333 0.13640 0.60029 0.08700
H 	H 	0.73533 0.13958 0.85741 0.14400
H 	H 	0.73135 0.08667 1.01228 0.12600
H 	H 	0.75753 0.00743 0.21170 0.05900
H 	H 	0.73212 0.94486 1.01380 0.14000
H 	H 	0.77293 0.92041 0.19377 0.04300
H 	H 	0.82032 0.91254 1.11040 0.03000
C 	C 	0.20112 0.19745 0.23128 -0.25300
C 	C 	0.22112 0.12857 0.25050 0.10800
C 	C 	0.20302 0.06163 0.18933 -0.06800
C 	C 	0.16234 1.05587 0.08042 -0.09900
C 	C 	0.22283 0.99930 0.24058 0.07400
C 	C 	0.20156 0.92961 0.19780 -0.18100
C 	C 	0.26128 1.00412 0.34183 0.05200
C 	C 	0.28319 0.93825 0.39969 -0.19900
C 	C 	0.28806 0.88923 0.24401 0.48800
F 	F 	0.25541 0.87301 0.09502 -0.43200
F 	F 	0.30043 0.82702 0.32116 -0.43200
C 	C 	0.31492 0.91780 0.16952 0.36800
F 	F 	0.33916 0.96721 0.29670 -0.38700
F 	F 	0.29625 0.94915 0.00884 -0.37500
C 	C 	0.27842 0.07214 0.40697 0.08700
C 	C 	0.31730 0.08370 0.54575 -0.23100
C 	C 	0.25836 0.13232 0.35515 -0.11300
H 	H 	0.22036 0.24338 0.27228 0.10200
H 	H 	0.18294 0.20151 0.08420 0.07900
H 	H 	0.14959 1.03890 0.17014 0.05700
H 	H 	0.15002 0.10563 0.02908 0.05000
H 	H 	0.15521 1.01728 -0.04389 0.03900
H 	H 	0.21758 0.88435 0.25835 0.11900
H 	H 	0.18071 0.93409 0.25505 0.06900
H 	H 	0.18822 0.91561 0.04578 0.09600
H 	H 	0.27069 0.90755 0.47141 0.14000
H 	H 	0.31040 0.95080 0.50949 0.17300
H 	H 	0.32202 0.05687 0.67099 0.15000
H 	H 	0.33610 0.06508 0.48364 0.16900
H 	H 	0.32433 0.14036 0.59427 0.11800
H 	H 	0.27176 0.18368 0.40593 0.07800
C 	C 	0.81463 0.69362 0.96313 -0.23000
C 	C 	0.79316 0.62411 0.89844 0.10300
C 	C 	0.75562 0.61964 0.85319 -0.01100
C 	C 	0.73447 0.68673 0.82598 -0.16000
C 	C 	0.73880 0.55309 0.84316 0.04700
C 	C 	0.70019 0.55170 0.82782 -0.16700
C 	C 	0.75900 0.49027 0.85786 0.04700
C 	C 	0.74276 0.41824 0.85947 -0.19700
C 	C 	0.71695 0.38417 0.66456 0.49000
F 	F 	0.73555 0.38054 0.55156 -0.41800
F 	F 	0.68736 0.42524 0.58618 -0.45300
C 	C 	0.70330 0.30841 0.66553 0.33800
F 	F 	0.73219 0.26835 0.76187 -0.41600
F 	F 	0.68765 0.27783 0.48403 -0.36500
C 	C 	0.79566 0.49592 0.88232 0.08800
C 	C 	0.81829 0.43212 0.88819 -0.18200
C 	C 	0.81223 0.56229 0.90690 -0.10000
H 	H 	0.79826 0.73982 0.96834 0.08700
H 	H 	0.83396 0.69172 1.10750 0.10800
H 	H 	0.74050 0.71685 0.96256 0.07600
H 	H 	0.74204 0.71959 0.73857 0.08300
H 	H 	0.70490 0.67749 0.75281 0.07400
H 	H 	0.69106 0.50171 0.85597 0.09000
H 	H 	0.69734 0.59211 0.93105 0.07100
H 	H 	0.68139 0.56261 0.68659 0.09300
H 	H 	0.73025 0.42316 0.95994 0.11000
H 	H 	0.76423 0.38062 0.92052 0.12500
H 	H 	0.82330 0.40593 0.01449 0.07800
H 	H 	0.80431 0.39472 0.76304 0.12500
H 	H 	0.84502 0.44624 0.89084 0.10700
H 	H 	0.84088 0.56620 0.93920 0.10500
C 	C 	0.43193 0.65801 0.47978 -0.25400
C 	C 	0.46120 0.60731 0.48007 0.08900
C 	C 	0.48917 0.59284 0.65020 -0.01600
C 	C 	0.49030 0.63297 0.82752 -0.15200
C 	C 	0.51580 0.54311 0.65143 0.04500
C 	C 	0.54399 0.52474 0.83575 -0.17100
C 	C 	0.51512 0.51107 0.48030 0.03900
C 	C 	0.54146 0.45445 0.47329 -0.19100
C 	C 	0.52665 0.38034 0.47586 0.48400
F 	F 	0.49146 0.37148 0.34334 -0.39100
F 	F 	0.52578 0.37447 0.64646 -0.42500
C 	C 	0.54906 0.32068 0.43365 0.33100
F 	F 	0.55785 0.33451 0.28897 -0.39700
F 	F 	0.52807 0.25882 0.37878 -0.33000
C 	C 	0.48832 0.53024 0.31205 0.07700
C 	C 	0.48906 0.50639 0.12763 -0.19700
C 	C 	0.46165 0.57639 0.31399 -0.10000
H 	H 	0.41772 0.63843 0.56035 0.08800
H 	H 	0.44521 0.70964 0.55087 0.10300
H 	H 	0.49246 0.69034 0.82027 0.06500
H 	H 	0.46536 0.62127 0.84634 0.05700
H 	H 	0.51333 0.62164 0.95457 0.06600
H 	H 	0.56436 0.48710 0.83110 0.07600
H 	H 	0.55955 0.57278 0.91932 0.06600
H 	H 	0.53008 0.49917 0.90827 0.10100
H 	H 	0.56875 0.46568 0.58331 0.08400
H 	H 	0.54685 0.45614 0.34821 0.11100
H 	H 	0.51338 0.53163 0.12725 0.06200
H 	H 	0.49020 0.44840 0.10509 0.13200
H 	H 	0.46512 0.52267 0.00943 0.06300
H 	H 	0.44172 0.58960 0.18256 0.03300
C 	C 	0.97123 0.78005 0.88377 -0.25700
C 	C 	0.99286 0.84902 0.94530 0.14800
C 	C 	1.01894 0.86596 0.87905 -0.04800
C 	C 	1.02206 0.81842 0.72158 -0.13900
C 	C 	0.04178 0.92692 0.96128 0.10800
C 	C 	0.07373 0.93679 0.91215 -0.15300
C 	C 	0.03505 -0.02460 0.09207 -0.04600
C 	C 	0.05755 0.04366 0.17332 -0.15800
C 	C 	0.05004 0.09864 0.03093 0.46200
F 	F 	1.01502 0.08883 -0.10324 -0.41700
F 	F 	0.07331 0.09034 0.94309 -0.42800
C 	C 	0.05442 0.17535 0.12135 0.33500
F 	F 	0.02834 0.18623 0.19026 -0.42200
F 	F 	0.04849 0.22038 -0.01373 -0.37100
C 	C 	1.00673 0.95961 0.14580 0.13900
C 	C 	0.99697 0.00909 0.27823 -0.26000
C 	C 	0.98693 0.89604 0.07575 -0.17000
H 	H 	0.98124 0.74194 0.80300 0.13400
H 	H 	0.97440 0.75479 0.00931 0.10400
H 	H 	0.03449 0.76841 0.77304 0.06800
H 	H 	0.99485 0.80705 0.60821 0.05800
H 	H 	1.03817 0.84193 0.65638 0.06000
H 	H 	0.09433 -0.02445 1.00703 0.08900
H 	H 	0.08829 0.88677 0.92091 0.06900
H 	H 	0.06421 -0.04732 0.76970 0.07800
H 	H 	0.08647 0.03081 0.23512 0.05700
H 	H 	0.05324 0.06831 0.29438 0.08100
H 	H 	1.01955 0.01438 0.41785 0.10200
H 	H 	0.99081 0.06160 0.22586 0.12600
H 	H 	0.97268 0.98988 0.29391 0.09700
H 	H 	0.96614 0.88293 0.12156 0.07200
C 	C 	0.56653 0.05507 0.72446 -0.25200
C 	C 	0.53782 0.01865 0.76424 0.15500
C 	C 	0.54460 -0.00528 -0.06219 -0.05400
C 	C 	0.57945 0.01602 0.10492 -0.15900
C 	C 	0.51806 0.95153 -0.04328 0.06800
C 	C 	0.52749 0.92117 0.13949 -0.18900
C 	C 	0.48327 0.93925 0.80722 0.02800
C 	C 	0.45278 0.89903 0.82816 -0.12600
C 	C 	0.43651 0.94350 -0.05170 0.43300
F 	F 	0.44349 1.01462 0.94985 -0.35500
F 	F 	0.45281 0.92653 0.12841 -0.43800
C 	C 	0.39520 0.93316 -0.12109 0.34600
F 	F 	0.37866 0.95397 0.70247 -0.37200
F 	F 	0.38374 0.97636 -0.00650 -0.35200
C 	C 	0.47616 0.96973 0.64050 0.14600
C 	C 	0.43934 0.96460 0.48192 -0.23200
C 	C 	0.50366 0.00674 0.62007 -0.14600
H 	H 	0.59313 0.03132 0.79502 0.14900
H 	H 	0.56045 0.04654 0.57429 0.12800
H 	H 	0.59651 -0.03036 0.14603 0.10000
H 	H 	0.59577 0.05705 0.08201 0.11300
H 	H 	0.57311 0.03887 0.22183 0.11300
H 	H 	0.50968 0.87682 0.13278 0.10400
H 	H 	0.55484 0.89917 0.18780 0.08900
H 	H 	0.52689 0.96316 0.24509 0.12000
H 	H 	0.46235 0.84829 -0.11474 0.05900
H 	H 	0.43112 0.88122 0.69135 0.09900
H 	H 	0.43284 0.90918 0.41953 0.14700
H 	H 	0.41858 0.98390 0.53101 0.17900
H 	H 	0.43795 -0.00243 0.37199 0.16400
H 	H 	0.49825 0.02792 0.49020 0.11700
C 	C 	0.06471 0.39968 0.39709 -0.24900
C 	C 	0.02881 0.43042 0.38350 0.11400
C 	C 	-0.00163 0.38801 0.36024 0.01400
C 	C 	1.00049 0.30867 0.35500 -0.18000
C 	C 	0.96531 0.42004 0.34133 0.06200
C 	C 	0.93246 0.37285 0.30198 -0.18200
C 	C 	0.96357 0.49490 0.36126 0.04700
C 	C 	0.92924 0.53026 0.35830 -0.18200
C 	C 	0.92046 0.51952 0.52899 0.47600
F 	F 	-0.05186 0.48473 0.65674 -0.39200
F 	F 	0.88914 0.47824 0.47148 -0.43400
C 	C 	0.91521 0.58963 0.62967 0.35900
F 	F 	0.94543 0.63250 0.67563 -0.42700
F 	F 	0.91270 0.57627 0.79228 -0.36800
C 	C 	-0.00554 0.53643 0.38544 0.09500
C 	C 	-0.00510 0.61606 0.40417 -0.20800
C 	C 	0.02609 0.50365 0.39413 -0.10000
H 	H 	0.05933 0.35700 0.28354 0.14200
H 	H 	0.08132 0.44056 0.37430 0.13300
H 	H 	0.98404 0.28432 0.21251 0.11900
H 	H 	0.02830 0.28998 0.39829 0.13200
H 	H 	0.99018 0.28926 0.45221 0.11100
H 	H 	0.90678 0.40028 0.26165 0.11400
H 	H 	0.92832 0.33282 0.18366 0.08100
H 	H 	0.93639 0.34613 0.42618 0.11800
H 	H 	0.90598 0.51178 0.22733 0.10900
H 	H 	0.93085 0.58699 0.34575 0.10900
H 	H 	-0.02574 0.63519 0.27717 0.10000
H 	H 	-0.01030 0.63607 0.52654 0.11500
H 	H 	0.02142 0.63919 0.42387 0.08600
H 	H 	0.04945 0.53595 0.41366 0.08100
