data_crystal

_cell_length_a 31.05430
_cell_length_b 13.75600
_cell_length_c 10.50950
_cell_angle_alpha 96.73700
_cell_angle_beta  85.95460
_cell_angle_gamma 90.26390

_symmetry_space_group_name_	'P 1'
_symmetry_space_group_name_H-M	'P 1'

loop_
_symmetry_equiv_pos_as_xyz
  x,y,z

loop_
_atom_site_label
_atom_site_type_symbol
_atom_site_fract_x
_atom_site_fract_y
_atom_site_fract_z
_atom_site_charge
Eu	Eu	0.40278 0.71746 0.16779 2.15100
O 	O 	0.36614 1.00977 0.30514 -0.07700
C 	C 	0.32204 0.61206 0.24753 0.28100
O 	O 	0.43815 0.63883 -0.09655 -0.17200
O 	O 	0.44685 0.78558 0.01967 -0.33200
O 	O 	0.44425 0.52707 0.11998 -0.24000
O 	O 	0.32428 0.60181 0.13069 -0.21400
O 	O 	0.35704 0.64989 0.31151 -0.37000
O 	O 	0.39995 0.86334 0.29619 -0.32600
C 	C 	0.36834 0.92406 0.25826 0.21200
O 	O 	0.46091 0.65848 0.25591 -0.36800
C 	C 	0.46860 0.56344 0.19805 0.26900
C 	C 	0.44757 0.72530 -0.09621 0.24200
Eu	Eu	0.86120 0.75058 0.98876 1.87400
O 	O 	0.80083 0.92413 1.08799 -0.22400
C 	C 	0.76807 0.66852 0.97302 0.26200
O 	O 	0.88998 0.92050 1.18365 -0.24700
O 	O 	0.91461 0.86484 0.98053 -0.38300
O 	O 	0.88972 0.53984 0.87883 -0.19600
O 	O 	0.75368 0.74203 1.03732 -0.18300
O 	O 	0.80868 0.63330 0.99245 -0.36500
O 	O 	0.81953 0.84993 0.88848 -0.36000
C 	C 	0.80157 0.92695 0.97270 0.26600
O 	O 	0.88474 0.68001 0.78876 -0.32900
C 	C 	0.88494 0.57845 0.78220 0.23500
C 	C 	0.91392 0.93235 1.09010 0.26900
Eu	Eu	0.10816 0.27812 0.35797 1.93900
O 	O 	0.17057 0.17395 0.18030 -0.22300
C 	C 	0.18618 0.36772 0.49148 0.23500
O 	O 	0.07658 0.31489 0.09939 -0.18500
O 	O 	0.07577 0.17975 0.20295 -0.34500
O 	O 	0.01398 0.30195 0.36154 -0.23200
O 	O 	0.20182 0.32584 0.39005 -0.21000
O 	O 	0.14142 0.37214 0.51516 -0.34600
O 	O 	0.15054 0.14780 0.38288 -0.35200
C 	C 	0.17790 0.13198 0.27214 0.26600
O 	O 	0.05471 0.24849 0.50894 -0.34500
C 	C 	0.01632 0.28457 0.47196 0.25400
C 	C 	0.07122 0.22654 0.09436 0.23200
Eu	Eu	0.61138 0.23735 0.63865 1.96200
O 	O 	0.68346 0.28724 0.80868 -0.18700
C 	C 	0.62054 0.46064 0.71892 0.22500
O 	O 	0.60829 0.10585 0.86264 -0.19700
O 	O 	0.59070 0.07969 0.65632 -0.37100
O 	O 	0.53918 0.25864 0.47030 -0.21400
O 	O 	0.60957 0.43105 0.82127 -0.18100
O 	O 	0.63039 0.39411 0.61026 -0.33300
O 	O 	0.68259 0.19369 0.61783 -0.31900
C 	C 	0.70412 0.24846 0.71327 0.21900
O 	O 	0.60817 0.20762 0.42214 -0.31600
C 	C 	0.56732 0.23010 0.38710 0.23900
C 	C 	0.59047 0.05418 0.78039 0.27100
C 	C 	0.28228 0.58605 0.31845 0.15500
N 	N 	0.24581 0.56215 0.26087 -0.02700
N 	N 	0.21772 0.53807 0.35160 -0.04800
C 	C 	0.23842 0.54975 0.46046 0.15700
C 	C 	0.21829 0.52606 0.58729 0.41600
F 	F 	0.24339 0.56544 0.68415 -0.31700
F 	F 	0.17769 0.56867 0.60853 -0.36000
C 	C 	0.21510 0.41454 0.58999 0.38300
F 	F 	0.19882 0.39476 0.71029 -0.32000
F 	F 	0.25605 0.37337 0.56735 -0.34200
O 	O 	0.27877 0.57965 0.44308 -0.11700
C 	C 	0.78490 1.01270 0.92161 0.14100
N 	N 	0.76487 1.08809 0.99478 -0.02900
N 	N 	0.75822 1.15396 0.91670 -0.02800
C 	C 	0.77471 0.11520 0.79979 0.16300
C 	C 	0.77808 0.16820 0.68226 0.42100
F 	F 	0.82113 0.18997 0.65749 -0.29800
F 	F 	0.76505 0.10592 0.57948 -0.34300
C 	C 	0.75202 0.26416 0.69567 0.39300
F 	F 	0.76023 0.30899 0.58532 -0.29500
F 	F 	0.76559 0.32703 0.79771 -0.33000
O 	O 	0.79177 1.02762 0.80017 -0.12900
C 	C 	0.21641 0.07040 0.26520 0.15300
N 	N 	0.22823 0.02240 0.36134 -0.02600
N 	N 	0.26445 -0.02350 0.31769 -0.02300
C 	C 	0.27299 1.00010 0.19783 0.16200
C 	C 	0.31026 0.96117 0.10732 0.43500
F 	F 	0.29343 0.91985 -0.00466 -0.30700
F 	F 	0.33613 1.03854 0.07706 -0.33900
C 	C 	0.33798 0.88330 0.15829 0.35100
F 	F 	0.36242 0.83612 0.05471 -0.47700
F 	F 	0.31129 0.81494 0.20916 -0.42900
O 	O 	0.24348 0.05768 0.16227 -0.11100
C 	C 	0.74366 0.61909 0.87041 0.14500
N 	N 	0.75882 0.54047 0.79265 0.00200
N 	N 	0.73085 0.52282 0.70453 0.00600
C 	C 	0.70000 0.59157 0.73319 0.15400
C 	C 	0.66393 0.60410 0.64897 0.41700
F 	F 	0.66042 0.70275 0.63526 -0.31900
F 	F 	0.67371 0.55385 0.52820 -0.33100
C 	C 	0.62047 0.56865 0.70591 0.39100
F 	F 	0.58916 0.58531 0.62376 -0.30500
F 	F 	0.60986 0.62212 0.82396 -0.34200
O 	O 	0.70713 0.65301 0.83572 -0.12800
C 	C 	0.50575 0.50658 0.22722 0.15400
N 	N 	0.53212 0.53529 0.32045 -0.01000
N 	N 	0.56115 0.46497 0.31602 -0.01400
C 	C 	0.55094 0.39723 0.22009 0.15900
C 	C 	0.57630 0.30469 0.17859 0.42000
F 	F 	0.57392 0.28144 0.04733 -0.35300
F 	F 	0.61935 0.32004 0.20203 -0.34600
C 	C 	0.55804 0.21858 0.24735 0.38300
F 	F 	0.57680 0.13205 0.18852 -0.32000
F 	F 	0.51383 0.21169 0.23612 -0.34600
O 	O 	0.51664 0.42113 0.16303 -0.12300
C 	C 	0.94146 1.01936 1.08948 0.11100
N 	N 	0.94535 1.08660 0.19150 -0.01200
N 	N 	0.97204 0.15325 0.15158 -0.01600
C 	C 	-0.01709 0.12331 1.02737 0.14000
C 	C 	0.01249 0.17871 0.94274 0.39200
F 	F 	0.00815 0.14086 0.81598 -0.33100
F 	F 	0.00036 0.27644 0.95746 -0.37100
C 	C 	0.06015 0.16809 -0.02885 0.42700
F 	F 	0.08604 0.19893 0.87116 -0.34700
F 	F 	0.06941 0.07015 -0.02373 -0.34400
O 	O 	0.96436 1.04028 0.98599 -0.12100
C 	C 	0.56859 -0.03631 0.80940 0.13200
N 	N 	0.56688 -0.07020 -0.07569 0.00700
N 	N 	0.54394 0.84882 -0.08847 -0.00200
C 	C 	0.53290 0.83751 0.78947 0.16000
C 	C 	0.50610 0.75437 0.73267 0.39700
F 	F 	0.51031 0.75180 0.60021 -0.31600
F 	F 	0.52195 0.66698 0.76380 -0.34000
C 	C 	0.45786 0.76647 -0.22116 0.41100
F 	F 	0.43317 0.71722 -0.31295 -0.31100
F 	F 	0.44587 0.86436 -0.20744 -0.33200
O 	O 	0.54782 -0.09221 0.72363 -0.11100
C 	C 	-0.02042 0.30885 0.56520 0.15000
N 	N 	-0.01776 0.31660 0.69330 -0.00800
N 	N 	-0.05529 0.35183 0.74442 -0.01500
C 	C 	0.92159 0.36614 0.64485 0.17000
C 	C 	0.87660 0.40698 0.65779 0.42100
F 	F 	0.85516 0.36429 0.55463 -0.28300
F 	F 	0.85484 0.38149 0.76849 -0.32600
C 	C 	0.87668 0.51939 0.65587 0.38600
F 	F 	0.83674 0.54735 0.62212 -0.32700
F 	F 	0.90724 0.54470 0.56287 -0.36200
O 	O 	0.94244 0.34017 0.53213 -0.11900
