data_crystal

_cell_length_a 36.29320
_cell_length_b 15.93970
_cell_length_c 6.87940
_cell_angle_alpha 70.38310
_cell_angle_beta  85.56090
_cell_angle_gamma 88.98960

_symmetry_space_group_name_	'P 1'
_symmetry_space_group_name_H-M	'P 1'

loop_
_symmetry_equiv_pos_as_xyz
  x,y,z

loop_
_atom_site_label
_atom_site_type_symbol
_atom_site_fract_x
_atom_site_fract_y
_atom_site_fract_z
_atom_site_charge
Eu	Eu	0.36340 0.76443 0.21974 2.12500
O 	O 	0.28066 0.80343 0.66339 -0.14400
C 	C 	0.31742 0.63060 0.12302 0.30800
O 	O 	0.44268 0.85297 0.08216 -0.23200
O 	O 	0.38654 0.90504 0.15224 -0.34300
O 	O 	0.41628 0.64069 0.12135 -0.28800
O 	O 	0.32245 0.69418 -0.03519 -0.25800
O 	O 	0.33733 0.62670 0.29012 -0.41000
O 	O 	0.33497 0.77423 0.51786 -0.38100
C 	C 	0.29800 0.80022 0.50701 0.21000
O 	O 	0.41475 0.69958 0.37722 -0.43100
C 	C 	0.43259 0.65433 0.25677 0.30100
C 	C 	0.42496 0.91196 0.12060 0.25700
Eu	Eu	0.89152 0.73073 0.99930 1.92300
O 	O 	0.86705 0.93214 0.86268 -0.26100
C 	C 	0.81094 0.67999 0.98733 0.31800
O 	O 	0.91491 0.78562 1.34291 -0.31200
O 	O 	0.93865 0.82000 1.01340 -0.41200
O 	O 	0.91915 0.54894 1.13197 -0.21200
O 	O 	0.80813 0.74168 1.05441 -0.29600
O 	O 	0.84534 0.64163 0.97271 -0.39600
O 	O 	0.87392 0.83134 0.69979 -0.40900
C 	C 	0.85513 0.90085 0.74069 0.25800
O 	O 	0.93108 0.66216 0.83017 -0.34100
C 	C 	0.93432 0.57325 0.95740 0.25400
C 	C 	0.93845 0.82617 1.20986 0.30900
Eu	Eu	0.11419 0.25431 0.27579 1.88800
O 	O 	0.19751 0.21102 0.24551 -0.24600
C 	C 	0.14852 0.43787 0.05144 0.23600
O 	O 	0.10981 0.15218 -0.03107 -0.21400
O 	O 	0.09226 0.11720 0.30980 -0.37000
O 	O 	0.06752 0.41007 0.35141 -0.20400
O 	O 	0.14263 0.40765 -0.08490 -0.21300
O 	O 	0.13937 0.38710 0.25691 -0.35300
O 	O 	0.15400 0.18007 0.51150 -0.38200
C 	C 	0.18322 0.15514 0.39993 0.24800
O 	O 	0.06770 0.26120 0.51424 -0.38600
C 	C 	0.05012 0.34347 0.45473 0.25900
C 	C 	0.09934 0.09478 0.13153 0.22000
Eu	Eu	0.62919 0.31832 0.80140 1.87800
O 	O 	0.69383 0.18294 0.91606 -0.17100
C 	C 	0.70474 0.41957 0.60749 0.22500
O 	O 	0.62722 0.09819 1.07481 -0.20900
O 	O 	0.58650 0.21110 0.98664 -0.39400
O 	O 	0.54454 0.35307 0.75375 -0.15700
O 	O 	0.71642 0.34775 0.71014 -0.15300
O 	O 	0.66689 0.43653 0.61670 -0.37100
O 	O 	0.65776 0.22495 0.64688 -0.34200
C 	C 	0.68494 0.17155 0.75936 0.26600
O 	O 	0.59354 0.35542 0.52697 -0.35400
C 	C 	0.55573 0.35538 0.58023 0.21500
C 	C 	0.59675 0.12330 1.01833 0.31200
C 	C 	0.28960 0.56190 0.13607 -0.01500
C 	C 	0.29250 0.47421 0.27111 -0.02300
C 	C 	0.26667 0.40965 0.27316 0.13200
Br	Br	0.27121 0.28981 0.45335 -0.11100
C 	C 	0.23761 0.43251 0.14263 -0.01400
C 	C 	0.23347 0.52069 0.01170 0.00900
C 	C 	0.20150 0.54643 -0.12751 0.44100
F 	F 	0.20420 0.63608 -0.24669 -0.34100
F 	F 	0.20427 0.49924 -0.26500 -0.37100
C 	C 	0.16320 0.53158 -0.00354 0.37200
F 	F 	0.13771 0.58828 -0.12099 -0.30400
F 	F 	0.16522 0.55211 0.17656 -0.34200
C 	C 	0.25985 0.58461 0.00941 0.04500
H 	H 	0.31507 0.45561 0.37096 0.10400
H 	H 	0.21827 0.38150 0.14386 0.09000
H 	H 	0.25734 0.65273 -0.08978 0.13000
C 	C 	0.81905 0.92941 0.65493 0.02300
C 	C 	0.80220 0.88118 0.54825 -0.07400
C 	C 	0.76674 0.90277 0.48329 0.16400
Br	Br	0.74448 0.83665 0.33710 -0.13300
C 	C 	0.74749 0.97211 0.52533 -0.11400
C 	C 	0.76389 0.02290 0.62970 0.15800
C 	C 	0.74471 0.10176 0.67352 0.40600
F 	F 	0.75645 0.10647 0.85668 -0.37200
F 	F 	0.75637 0.17896 0.51507 -0.33900
C 	C 	0.70184 0.09769 0.69191 0.38100
F 	F 	0.68931 0.10749 0.49992 -0.36600
F 	F 	0.68944 0.01648 0.83300 -0.37800
C 	C 	0.80010 1.00152 0.68977 -0.10700
H 	H 	0.81617 0.82545 0.51897 0.08400
H 	H 	0.72018 0.98618 0.47190 0.16200
H 	H 	0.81348 0.04043 0.76719 0.17400
C 	C 	0.19414 0.06076 0.45358 0.05200
C 	C 	0.17219 0.99407 0.59981 -0.13400
C 	C 	0.18067 0.90441 0.63873 0.18400
Br	Br	0.15047 0.81382 0.83840 0.00800
C 	C 	0.21063 0.88036 0.52865 -0.04000
C 	C 	0.23331 0.94598 0.38130 0.00300
C 	C 	0.26527 0.92599 0.24590 0.37800
F 	F 	0.25412 -0.04896 0.04576 -0.30800
F 	F 	0.29505 -0.01986 0.24124 -0.34500
C 	C 	0.27940 0.82913 0.30431 0.39100
F 	F 	0.30446 0.82533 0.14733 -0.55300
F 	F 	0.25098 0.77075 0.31504 -0.37900
C 	C 	0.22456 0.03606 0.34577 0.05600
H 	H 	0.14782 0.01139 0.67891 0.19000
H 	H 	0.21533 0.81016 0.56147 0.15900
H 	H 	0.24101 0.08745 0.22853 0.12300
C 	C 	0.77881 0.64942 0.90925 -0.02000
C 	C 	0.74283 0.67588 0.95209 -0.01200
C 	C 	0.71282 0.64746 0.87442 0.14200
Br	Br	0.66388 0.68224 0.93698 -0.13400
C 	C 	0.71838 0.59338 0.75136 -0.03000
C 	C 	0.75433 0.56744 0.70265 0.00600
C 	C 	0.76322 0.51300 0.56052 0.43500
F 	F 	0.78807 0.56273 0.40168 -0.37400
F 	F 	0.78128 0.43606 0.66934 -0.35700
C 	C 	0.73061 0.48813 0.45738 0.37400
F 	F 	0.74483 0.45287 0.30847 -0.32500
F 	F 	0.71112 0.56372 0.35748 -0.38500
C 	C 	0.78416 0.59489 0.78601 0.04600
H 	H 	0.73793 0.71757 1.04718 0.11100
H 	H 	0.69443 0.57297 0.69504 0.10500
H 	H 	0.81199 0.57585 0.74832 0.11400
C 	C 	0.47098 0.62441 0.28894 -0.02700
C 	C 	0.49476 0.66783 0.37616 -0.02800
C 	C 	0.53138 0.64010 0.40289 0.12800
Br	Br	0.56402 0.70182 0.51300 -0.13400
C 	C 	0.54408 0.56646 0.35106 -0.01800
C 	C 	0.52053 0.52098 0.26711 -0.00400
C 	C 	0.53345 0.43713 0.22486 0.44500
F 	F 	0.51296 0.42344 0.07655 -0.35200
F 	F 	0.56998 0.44742 0.14456 -0.42100
C 	C 	0.52899 0.35456 0.42401 0.36900
F 	F 	0.53531 0.27779 0.37375 -0.33700
F 	F 	0.49289 0.35027 0.51016 -0.34100
C 	C 	0.48428 0.55245 0.23029 0.04400
H 	H 	0.48505 0.72331 0.42260 0.09800
H 	H 	0.57217 0.54393 0.37933 0.10100
H 	H 	0.46580 0.51745 0.16673 0.12000
C 	C 	0.96658 0.88062 1.25771 -0.03900
C 	C 	0.95911 0.91521 0.41873 -0.01500
C 	C 	0.98446 0.97142 0.45568 0.15200
Br	Br	0.97328 1.02135 0.66914 -0.19700
C 	C 	0.01768 0.99287 0.33439 -0.11600
C 	C 	0.02673 -0.04302 1.17518 0.09900
C 	C 	0.06269 -0.01927 1.03670 0.39100
F 	F 	0.07194 -0.08923 0.96535 -0.33000
F 	F 	0.05636 0.05417 0.86534 -0.40300
C 	C 	0.09637 -0.00147 0.14423 0.41600
F 	F 	0.12864 -0.02175 1.04897 -0.37100
F 	F 	0.09472 -0.05665 0.34942 -0.35100
C 	C 	1.00053 0.90071 1.13839 -0.02200
H 	H 	0.93307 0.90186 0.50986 0.08500
H 	H 	0.03590 0.03795 0.36639 0.15700
H 	H 	1.00636 0.87386 1.01402 0.12300
C 	C 	0.57025 0.06137 0.98467 -0.09100
C 	C 	0.58222 -0.01894 0.95947 0.04000
C 	C 	0.55722 0.92545 0.91626 0.07900
Br	Br	0.57394 0.81706 0.88022 -0.14900
C 	C 	0.51990 0.94802 0.90296 -0.04600
C 	C 	0.50704 1.02674 -0.06652 0.00600
C 	C 	0.46605 1.04852 -0.06835 0.41900
F 	F 	0.46142 1.13816 -0.09321 -0.33000
F 	F 	0.45208 0.03512 -0.23775 -0.30300
C 	C 	0.44423 0.99203 0.13770 0.36900
F 	F 	0.41758 1.04499 0.19445 -0.31900
F 	F 	0.46739 0.96276 0.29781 -0.38900
C 	C 	0.53252 0.08294 -0.02488 0.14800
H 	H 	0.61121 -0.03678 0.96535 0.11700
H 	H 	0.50116 0.90435 0.86702 0.10500
H 	H 	0.52306 0.14336 0.00151 0.13600
C 	C 	0.01059 0.35050 0.51457 -0.00300
C 	C 	0.98557 0.28327 0.52073 -0.03500
C 	C 	0.94770 0.29322 0.56283 0.14700
Br	Br	0.91295 0.20540 0.55730 -0.08500
C 	C 	0.93478 0.36891 0.60447 -0.01900
C 	C 	-0.04056 0.43635 0.60241 0.03400
C 	C 	-0.05429 0.51629 0.65834 0.43900
F 	F 	-0.03815 0.59296 0.51624 -0.39000
F 	F 	-0.09230 0.52372 0.64722 -0.40800
C 	C 	0.95545 0.50765 0.87898 0.36600
F 	F 	0.99292 0.52278 0.87925 -0.38100
F 	F 	0.94701 0.42215 1.01257 -0.39500
C 	C 	-0.00266 0.42691 0.55499 0.02600
H 	H 	0.99523 0.22478 0.48642 0.10000
H 	H 	0.90548 0.37398 0.64152 0.14700
H 	H 	0.01654 0.47890 0.55073 0.12600
