data_crystal

_cell_length_a 34.09800
_cell_length_b 16.73150
_cell_length_c 6.47200
_cell_angle_alpha 90.07730
_cell_angle_beta  71.85130
_cell_angle_gamma 87.99480

_symmetry_space_group_name_	'P 1'
_symmetry_space_group_name_H-M	'P 1'

loop_
_symmetry_equiv_pos_as_xyz
  x,y,z

loop_
_atom_site_label
_atom_site_type_symbol
_atom_site_fract_x
_atom_site_fract_y
_atom_site_fract_z
_atom_site_charge
Eu	Eu	0.35554 0.70036 0.16210 1.91200
O 	O 	0.29510 0.84404 0.20456 -0.17000
C 	C 	0.29248 0.60355 0.04271 0.27200
O 	O 	0.44673 0.75234 0.01477 -0.18900
O 	O 	0.38560 0.81790 0.17949 -0.34100
O 	O 	0.41701 0.55797 0.14986 -0.25300
O 	O 	0.28509 0.67337 0.01282 -0.26400
O 	O 	0.32267 0.58545 0.14084 -0.39200
O 	O 	0.30110 0.74920 0.44215 -0.35300
C 	C 	0.29037 0.82650 0.39337 0.23600
O 	O 	0.38356 0.64722 0.41062 -0.41600
C 	C 	0.41527 0.59133 0.31898 0.27900
C 	C 	0.42817 0.81553 0.08309 0.26600
Eu	Eu	0.87825 0.74890 0.92199 1.86800
O 	O 	0.80584 0.76983 0.74590 -0.27500
C 	C 	0.83901 0.58912 0.98635 0.28100
O 	O 	0.93738 0.78617 1.18832 -0.22200
O 	O 	0.89714 0.86418 1.04509 -0.40600
O 	O 	0.93482 0.59182 0.84502 -0.18300
O 	O 	0.84636 0.60441 1.15418 -0.29700
O 	O 	0.85618 0.63564 0.80520 -0.40900
O 	O 	0.86929 0.81998 0.63853 -0.40300
C 	C 	0.82870 0.81962 0.63896 0.25300
O 	O 	0.94595 0.71960 0.73665 -0.32800
C 	C 	0.95895 0.64582 0.79662 0.21900
C 	C 	0.92766 0.85326 1.14472 0.28500
Eu	Eu	0.11839 0.22208 0.04596 1.90700
O 	O 	0.19783 0.13848 -0.04952 -0.24300
C 	C 	0.18952 0.31952 -0.22762 0.18500
O 	O 	0.07407 0.15616 -0.25962 -0.22900
O 	O 	0.06344 0.14189 0.09824 -0.35100
O 	O 	0.03434 0.31092 0.15179 -0.19000
O 	O 	0.20634 0.26449 -0.35118 -0.14800
O 	O 	0.17200 0.30532 -0.00700 -0.33400
O 	O 	0.14485 0.14433 0.26147 -0.39400
C 	C 	0.18454 0.11876 0.13979 0.28000
O 	O 	0.08210 0.30493 0.32624 -0.36400
C 	C 	0.04914 0.34282 0.27736 0.27300
C 	C 	0.04929 0.14605 -0.08069 0.23500
Eu	Eu	0.62161 0.23831 0.76180 1.97000
O 	O 	0.71371 0.21587 0.60395 -0.14500
C 	C 	0.66644 0.37428 0.88450 0.26800
O 	O 	0.55995 0.19769 1.17294 -0.24900
O 	O 	0.57975 0.13222 0.85237 -0.41200
O 	O 	0.56618 0.38036 0.82477 -0.18300
O 	O 	0.64631 0.34399 1.05620 -0.21200
O 	O 	0.66287 0.34599 0.68845 -0.32200
O 	O 	0.66507 0.16411 0.47955 -0.35100
C 	C 	0.70524 0.16591 0.48920 0.25100
O 	O 	0.58403 0.28941 0.55269 -0.35000
C 	C 	0.56077 0.35606 0.65933 0.25600
C 	C 	0.55628 0.13942 1.06942 0.26800
C 	C 	0.27049 0.53939 -0.02659 0.09500
N 	N 	0.27154 0.46305 0.03736 0.00100
N 	N 	0.25369 0.41986 -0.07773 -0.01700
C 	C 	0.24197 0.47012 -0.21244 0.12000
C 	C 	0.22690 0.44237 -0.39646 0.41900
F 	F 	0.25680 0.39066 -0.52972 -0.37500
F 	F 	0.22152 0.50695 0.48086 -0.34800
C 	C 	0.18546 0.40133 -0.31501 0.38200
F 	F 	0.16978 0.39311 -0.48773 -0.38500
F 	F 	0.15756 0.44872 -0.15704 -0.38600
N 	N 	0.25104 0.54595 -0.17920 -0.06300
N 	N 	0.25173 0.60988 -0.32048 -0.11700
H 	H 	0.24789 0.66402 0.76503 0.17500
H 	H 	0.28072 0.60655 0.55862 0.12300
C 	C 	0.81252 0.88432 0.53227 0.04900
N 	N 	0.83561 -0.05525 0.43059 -0.04900
N 	N 	0.80999 -0.00000 0.39194 -0.01700
C 	C 	0.77126 0.97321 0.47124 0.11400
C 	C 	0.73235 1.02580 0.51129 0.41600
F 	F 	0.71932 1.04579 0.73109 -0.39000
F 	F 	0.70200 0.98156 0.46957 -0.39200
C 	C 	0.73751 0.10342 0.37394 0.38600
F 	F 	0.73341 0.08702 0.17179 -0.33500
F 	F 	0.77610 0.13521 0.33946 -0.34000
N 	N 	0.77227 0.90080 0.56072 -0.07100
N 	N 	0.73883 0.85373 0.67013 -0.14200
H 	H 	0.72258 0.84100 0.56183 0.16000
H 	H 	0.71936 0.88775 0.79914 0.17400
C 	C 	0.21072 0.06800 0.23196 0.10600
N 	N 	0.25099 0.05113 0.12477 0.00000
N 	N 	0.26443 0.99963 0.24506 -0.00400
C 	C 	0.23220 0.98406 0.42174 0.11100
C 	C 	0.23404 0.92772 0.60123 0.43100
F 	F 	0.20583 0.86880 0.61892 -0.37400
F 	F 	0.22270 0.97120 0.79278 -0.36900
C 	C 	0.27729 0.88909 0.57109 0.38200
F 	F 	0.27714 0.85362 0.76445 -0.34800
F 	F 	0.30659 0.94738 0.52799 -0.34500
N 	N 	0.19815 0.02690 0.41716 -0.06700
N 	N 	0.15807 0.02634 0.56644 -0.14100
H 	H 	0.15987 0.04159 0.71965 0.12600
H 	H 	0.14801 0.96784 0.57322 0.17500
C 	C 	0.81123 0.52382 0.98303 0.07700
N 	N 	0.79696 0.47420 1.15150 -0.00700
N 	N 	0.77101 0.42608 1.10135 0.01100
C 	C 	0.76946 0.44682 0.90273 0.14200
C 	C 	0.74203 0.40656 0.79377 0.42500
F 	F 	0.74534 0.32483 0.82696 -0.36100
F 	F 	0.75594 0.41876 0.57201 -0.34400
C 	C 	0.69633 0.43822 0.88757 0.38200
F 	F 	0.68943 0.50222 0.76549 -0.32500
F 	F 	0.68813 0.46490 1.10045 -0.34400
N 	N 	0.79456 0.50787 0.82393 -0.06600
N 	N 	0.80153 0.54551 0.62271 -0.11100
H 	H 	0.79158 0.60547 0.65408 0.13400
H 	H 	0.83330 0.54512 0.54910 0.14700
C 	C 	0.44641 0.57374 0.42960 0.07600
N 	N 	0.44813 0.61642 0.60290 -0.05900
N 	N 	0.48100 0.58941 0.65235 -0.02200
C 	C 	0.49932 0.53093 0.50744 0.14400
C 	C 	0.53749 0.48374 0.51341 0.41700
F 	F 	0.55257 0.52053 0.66394 -0.35400
F 	F 	0.56731 0.48672 0.31146 -0.33600
C 	C 	0.52815 0.39572 0.57767 0.38100
F 	F 	0.52566 0.35296 0.39854 -0.36800
F 	F 	0.49062 0.39166 0.74060 -0.39000
N 	N 	0.47883 0.52111 0.36190 -0.06400
N 	N 	0.48771 0.46381 0.19430 -0.11000
H 	H 	0.46243 0.42704 0.22442 0.16900
H 	H 	0.49074 0.49390 0.04897 0.18200
C 	C 	0.94849 0.92325 1.19365 0.09000
N 	N 	-0.01901 0.91900 0.27091 -0.02000
N 	N 	-0.00634 0.99304 0.27610 -0.01900
C 	C 	0.96867 0.04177 0.20277 0.11300
C 	C 	0.97426 0.13041 0.17105 0.42400
F 	F 	0.98807 0.16081 0.33414 -0.35000
F 	F 	0.93631 0.16828 0.19557 -0.34200
C 	C 	0.00385 0.14916 -0.05815 0.37400
F 	F 	-0.00570 0.22597 -0.11142 -0.33400
F 	F 	-0.00240 0.09732 0.78847 -0.36900
N 	N 	0.93990 0.99943 1.15102 -0.06600
N 	N 	0.90993 0.02606 1.05621 -0.14000
H 	H 	0.92467 1.05696 0.91470 0.19000
H 	H 	0.88959 0.06608 1.16594 0.18500
C 	C 	0.52694 0.07844 1.17558 0.08200
N 	N 	0.49845 0.08969 0.37227 -0.02300
N 	N 	0.47681 1.02404 0.41511 -0.00000
C 	C 	0.49233 0.97344 1.24461 0.14800
C 	C 	0.47587 0.89188 1.22980 0.42500
F 	F 	0.45054 0.87123 0.43532 -0.35900
F 	F 	0.50845 0.83600 1.16654 -0.35100
C 	C 	0.45082 0.89170 1.06810 0.38200
F 	F 	0.47652 0.89989 0.85713 -0.34400
F 	F 	0.42252 0.95607 1.11382 -0.33700
N 	N 	0.52383 0.00576 1.09314 -0.06900
N 	N 	0.54811 -0.02965 0.89617 -0.10700
H 	H 	0.54442 0.00545 0.76969 0.15900
H 	H 	0.57899 0.97097 0.89126 0.14800
C 	C 	0.03302 0.42255 0.36725 0.10800
N 	N 	1.00086 0.46074 0.32542 -0.01100
N 	N 	0.99752 0.53357 0.41122 -0.01200
C 	C 	0.02782 0.53975 0.50356 0.10900
C 	C 	0.03528 0.61639 0.60749 0.42400
F 	F 	0.03636 0.67870 0.46542 -0.33700
F 	F 	0.07280 0.61191 0.64841 -0.33900
C 	C 	1.00110 0.63488 0.82432 0.38500
F 	F 	1.01015 0.70415 0.91510 -0.32700
F 	F 	1.00058 0.57296 0.96684 -0.36800
N 	N 	0.05051 0.47047 0.47812 -0.06400
N 	N 	0.08622 0.45268 0.53535 -0.13400
H 	H 	0.07906 0.46192 0.70254 0.18300
H 	H 	0.10871 0.49253 0.45460 0.21100
