data_crystal

_cell_length_a 36.15170
_cell_length_b 18.13390
_cell_length_c 7.78460
_cell_angle_alpha 105.13120
_cell_angle_beta  71.52950
_cell_angle_gamma 93.00520

_symmetry_space_group_name_	'P 1'
_symmetry_space_group_name_H-M	'P 1'

loop_
_symmetry_equiv_pos_as_xyz
  x,y,z

loop_
_atom_site_label
_atom_site_type_symbol
_atom_site_fract_x
_atom_site_fract_y
_atom_site_fract_z
_atom_site_charge
Eu	Eu	0.38753 0.73366 0.27695 1.91300
O 	O 	0.32027 0.79211 0.21963 -0.27300
C 	C 	0.35579 0.57993 0.11171 0.33800
O 	O 	0.49186 0.86160 0.22422 -0.16000
O 	O 	0.43334 0.81611 0.35066 -0.39400
O 	O 	0.43658 0.59567 0.16825 -0.27400
O 	O 	0.38460 0.57925 -0.02394 -0.23300
O 	O 	0.33985 0.65047 0.22633 -0.38200
O 	O 	0.34052 0.82319 0.47449 -0.40300
C 	C 	0.31958 0.83977 0.36518 0.26600
O 	O 	0.40057 0.66397 0.45790 -0.39800
C 	C 	0.42797 0.60610 0.33821 0.34500
C 	C 	0.46307 0.82888 0.19572 0.29300
Eu	Eu	0.85630 0.81462 0.81101 1.98800
O 	O 	0.77821 0.83603 0.75259 -0.22700
C 	C 	0.79436 0.71122 0.99085 0.36600
O 	O 	0.92149 0.83958 0.97939 -0.26200
O 	O 	0.90524 0.90048 0.79766 -0.38800
O 	O 	0.89018 0.68637 0.86250 -0.27700
O 	O 	0.80766 0.74283 1.11532 -0.27800
O 	O 	0.80927 0.72514 0.81579 -0.40000
O 	O 	0.83971 0.86048 0.59819 -0.38200
C 	C 	0.79940 0.87043 0.64590 0.34200
O 	O 	0.90042 0.72403 0.59728 -0.38500
C 	C 	0.91073 0.68101 0.70142 0.27900
C 	C 	0.93085 0.88585 0.88555 0.35100
Eu	Eu	0.15480 0.27237 0.25384 1.89800
O 	O 	0.17472 0.12076 0.22595 -0.27800
C 	C 	0.23616 0.34018 0.20436 0.24700
O 	O 	0.11911 0.20200 -0.05759 -0.25500
O 	O 	0.10882 0.18133 0.22726 -0.37000
O 	O 	0.10791 0.35091 0.13899 -0.29200
O 	O 	0.25481 0.33826 0.04014 -0.16500
O 	O 	0.19812 0.37017 0.27897 -0.37800
O 	O 	0.16463 0.22074 0.47805 -0.38300
C 	C 	0.17573 0.14389 0.38663 0.33300
O 	O 	0.10423 0.35664 0.43340 -0.37900
C 	C 	0.09083 0.37880 0.30514 0.33800
C 	C 	0.09913 0.17225 0.06286 0.29000
Eu	Eu	0.60685 0.25323 0.69904 1.86500
O 	O 	0.67769 0.21273 0.77426 -0.25400
C 	C 	0.63461 0.40009 0.91698 0.28900
O 	O 	0.58945 0.14125 0.93530 -0.27500
O 	O 	0.59261 0.12703 0.63507 -0.39300
O 	O 	0.52556 0.25399 0.59182 -0.20600
O 	O 	0.64255 0.34871 0.97412 -0.28500
O 	O 	0.61996 0.38122 0.76615 -0.41300
O 	O 	0.66969 0.22443 0.50652 -0.37000
C 	C 	0.69158 0.20246 0.60386 0.29000
O 	O 	0.59004 0.26487 0.44986 -0.37800
C 	C 	0.55112 0.29120 0.50919 0.25200
C 	C 	0.58149 0.10277 0.79844 0.34900
C 	C 	0.33848 0.50727 0.15119 -0.10500
C 	C 	0.34558 0.43880 0.00610 0.17000
Cl	Cl	0.37068 0.43848 -0.23123 -0.18300
C 	C 	0.33352 0.36814 0.04526 0.12900
Cl	Cl	0.34412 0.28485 -0.14333 -0.18400
C 	C 	0.31187 0.36452 0.22922 -0.02400
C 	C 	0.29386 0.28924 0.26739 0.12600
O 	O 	0.30100 0.27637 0.42671 -0.19700
C 	C 	0.24957 0.28407 0.28139 -0.05000
O 	O 	0.24389 0.20877 0.18710 -0.20000
C 	C 	0.30299 0.43316 0.37319 0.13300
Cl	Cl	0.27488 0.43185 0.60280 -0.20700
C 	C 	0.31719 0.50332 0.33564 0.17000
Cl	Cl	0.31026 0.58392 0.52843 -0.23700
H 	H 	0.30880 0.24118 0.14974 0.08600
H 	H 	0.28419 0.23432 0.46422 0.19300
H 	H 	0.23086 0.29611 0.43040 0.08500
H 	H 	0.22802 0.20887 0.10311 0.09700
C 	C 	0.78193 0.92331 0.57281 -0.11300
C 	C 	0.80075 0.93410 0.39225 0.17000
Cl	Cl	0.84532 0.88655 0.25069 -0.33000
C 	C 	0.78417 0.98337 0.32193 0.11600
Cl	Cl	0.80814 0.98914 0.08799 -0.29700
C 	C 	0.74896 0.02527 0.43405 -0.04100
C 	C 	0.73452 0.08888 0.36852 0.11400
O 	O 	0.69948 0.07111 0.32402 -0.20700
C 	C 	0.73264 0.16964 0.50641 -0.01800
O 	O 	0.75457 0.22057 0.40701 -0.19200
C 	C 	0.72904 0.01077 0.61140 0.11200
Cl	Cl	0.68236 0.05162 0.75037 -0.24400
C 	C 	0.74583 0.96167 0.68115 0.16700
Cl	Cl	0.72232 0.95493 0.91463 -0.20200
H 	H 	0.75589 0.09425 0.23544 0.09900
H 	H 	0.68150 0.04801 0.41873 0.20300
H 	H 	0.74571 0.16540 0.61621 0.08300
H 	H 	0.75982 0.26532 0.50225 0.16800
C 	C 	0.19105 0.09043 0.46859 -0.11800
C 	C 	0.21111 0.11704 0.60207 0.15000
Cl	Cl	0.21069 0.21529 0.71581 -0.32300
C 	C 	0.23257 0.06527 0.64486 0.10600
Cl	Cl	0.26326 0.10195 0.78316 -0.26300
C 	C 	0.23220 0.98551 0.56619 -0.03300
C 	C 	0.26045 0.93092 0.58919 0.12100
O 	O 	0.24145 0.86516 0.63139 -0.22000
C 	C 	0.29801 0.91543 0.41314 -0.03300
O 	O 	0.32351 0.97632 0.43181 -0.20000
C 	C 	0.20919 0.95872 0.44611 0.12000
Cl	Cl	0.20618 0.86009 0.34571 -0.21700
C 	C 	0.18877 0.01049 0.39894 0.14500
Cl	Cl	0.16006 0.97224 0.25031 -0.19400
H 	H 	0.27020 0.95721 0.71330 0.07300
H 	H 	0.24982 0.82046 0.52058 0.19200
H 	H 	0.28901 0.91497 0.28778 0.09600
H 	H 	0.33452 0.97281 0.53201 0.17000
C 	C 	0.76297 0.65708 1.02426 -0.13000
C 	C 	0.77189 0.58182 1.01792 0.15500
Cl	Cl	0.82101 0.55261 -0.03793 -0.20300
C 	C 	0.74228 0.52850 1.04436 0.09600
Cl	Cl	0.75627 0.43434 0.02981 -0.20600
C 	C 	0.70254 0.55089 1.08625 -0.04000
C 	C 	0.67042 0.49183 1.11859 0.09700
O 	O 	0.64983 0.50322 0.31038 -0.21100
C 	C 	0.64365 0.48168 0.99090 -0.02800
O 	O 	0.60849 0.52615 1.06844 -0.19300
C 	C 	0.69374 0.62911 1.10295 0.10900
Cl	Cl	0.64533 0.66582 1.17553 -0.20900
C 	C 	0.72417 0.68107 1.06992 0.16800
Cl	Cl	0.71313 0.77681 1.08286 -0.21000
H 	H 	0.68555 0.43588 1.07832 0.07100
H 	H 	0.63972 0.55724 1.36185 0.17500
H 	H 	0.66059 0.49935 0.86445 0.09300
H 	H 	0.59673 0.52954 1.20324 0.17900
C 	C 	0.44835 0.55927 0.41172 -0.12200
C 	C 	0.48068 0.58848 0.46688 0.16200
Cl	Cl	0.49697 0.67899 0.43900 -0.23300
C 	C 	0.50134 0.54440 0.53330 0.11600
Cl	Cl	0.54250 0.58391 0.59682 -0.23800
C 	C 	0.49080 0.46827 0.53535 -0.05100
C 	C 	0.51270 0.42023 0.61071 0.12100
O 	O 	0.48766 0.38806 0.74943 -0.24600
C 	C 	0.54058 0.35837 0.44968 -0.02200
O 	O 	0.57487 0.39234 0.36094 -0.21900
C 	C 	0.46066 0.43616 0.46012 0.10900
Cl	Cl	0.44853 0.33809 0.44028 -0.20600
C 	C 	0.43986 0.48156 0.39744 0.17500
Cl	Cl	0.40448 0.43936 0.29063 -0.23200
H 	H 	0.53144 0.45722 0.68280 0.05300
H 	H 	0.45970 0.40045 0.76884 0.20400
H 	H 	0.52696 0.33384 0.33884 0.09400
H 	H 	0.58762 0.41488 0.45859 0.16200
C 	C 	0.96825 0.92752 0.87408 -0.13700
C 	C 	-0.00145 0.89932 -0.07708 0.18500
Cl	Cl	-0.00503 0.81134 -0.01194 -0.21000
C 	C 	0.03309 0.93988 -0.08068 0.10900
Cl	Cl	0.06894 0.90321 -0.01040 -0.18800
C 	C 	0.03868 1.00896 -0.13693 0.00700
C 	C 	0.07465 0.05644 -0.12688 0.12700
O 	O 	0.09201 0.07576 0.70223 -0.22200
C 	C 	0.06337 0.12929 0.03927 -0.02700
O 	O 	0.04362 0.10726 0.20418 -0.18600
C 	C 	0.00964 0.03466 0.80373 0.08900
Cl	Cl	0.01773 0.11285 0.69937 -0.21600
C 	C 	0.97470 0.99540 0.81188 0.18000
Cl	Cl	0.93906 0.03536 0.74715 -0.21700
H 	H 	0.09652 0.02458 -0.09923 0.06800
H 	H 	0.12011 0.08134 0.68638 0.16800
H 	H 	0.04445 0.16790 0.00837 0.10000
H 	H 	0.02400 0.14861 0.28417 0.18000
C 	C 	0.55830 0.03322 0.81066 -0.13000
C 	C 	0.56876 -0.03414 0.66487 0.16900
Cl	Cl	0.60940 -0.03770 0.46406 -0.19700
C 	C 	0.54691 0.90010 0.67783 0.12400
Cl	Cl	0.56155 0.81783 0.48552 -0.16200
C 	C 	0.51352 0.90032 0.83681 -0.06500
C 	C 	0.49436 0.82237 0.84369 0.13700
O 	O 	0.52291 0.76670 0.81709 -0.21200
C 	C 	0.45745 0.81220 1.00436 -0.06800
O 	O 	0.44671 0.73551 0.95715 -0.23900
C 	C 	0.50060 0.97122 -0.02734 0.14500
Cl	Cl	0.45329 0.98733 0.13778 -0.24200
C 	C 	0.52398 0.03568 -0.03621 0.17600
Cl	Cl	0.50802 0.12296 0.13770 -0.22100
H 	H 	0.48415 0.80737 0.71867 0.08000
H 	H 	0.53482 0.78418 -0.08124 0.21300
H 	H 	0.43317 0.84982 1.01308 0.05100
H 	H 	0.41840 0.73565 0.96882 0.00900
C 	C 	0.05459 0.42696 0.35976 -0.10900
C 	C 	0.04953 0.46787 0.23579 0.16400
Cl	Cl	0.08818 0.47390 0.03039 -0.19600
C 	C 	0.01386 0.50619 0.27442 0.12000
Cl	Cl	1.00927 0.55596 0.11372 -0.18200
C 	C 	0.98295 0.50787 0.44211 -0.02500
C 	C 	0.94549 0.55485 0.49116 0.12400
O 	O 	0.91275 0.51220 0.55896 -0.22000
C 	C 	0.94807 0.63382 0.62591 -0.02900
O 	O 	0.97790 0.67499 0.52873 -0.18800
C 	C 	0.98874 0.47011 0.57008 0.12500
Cl	Cl	0.95225 0.47423 0.78829 -0.21700
C 	C 	0.02401 0.42941 0.52920 0.15900
Cl	Cl	0.02855 0.37996 0.69162 -0.20900
H 	H 	0.94225 0.56713 0.36455 0.09000
H 	H 	0.89618 0.54088 0.68271 0.19900
H 	H 	-0.04475 0.62493 0.74830 0.09700
H 	H 	0.98619 0.71447 0.62353 0.17500
