data_crystal

_cell_length_a 44.71290
_cell_length_b 17.15520
_cell_length_c 9.56970
_cell_angle_alpha 96.90770
_cell_angle_beta  92.54900
_cell_angle_gamma 85.41030

_symmetry_space_group_name_	'P 1'
_symmetry_space_group_name_H-M	'P 1'

loop_
_symmetry_equiv_pos_as_xyz
  x,y,z

loop_
_atom_site_label
_atom_site_type_symbol
_atom_site_fract_x
_atom_site_fract_y
_atom_site_fract_z
_atom_site_charge
Eu	Eu	0.38740 0.74039 0.07812 1.90500
O 	O 	0.32730 0.81638 0.11160 -0.28800
C 	C 	0.33616 0.63336 0.00299 0.34600
O 	O 	0.39113 0.82816 -0.16813 -0.27700
O 	O 	0.41687 0.83767 0.04002 -0.39200
O 	O 	0.45790 0.72820 0.10062 -0.24200
O 	O 	0.34155 0.65511 -0.10906 -0.27500
O 	O 	0.35612 0.64745 0.11721 -0.39700
O 	O 	0.36720 0.82113 0.26191 -0.38500
C 	C 	0.33816 0.84639 0.22186 0.27100
O 	O 	0.42251 0.68310 0.22301 -0.38900
C 	C 	0.45212 0.68517 0.18587 0.34600
C 	C 	0.41114 0.85785 -0.09562 0.27300
Eu	Eu	0.87115 0.72052 0.85298 1.90800
O 	O 	0.85814 0.90451 0.91807 -0.23300
C 	C 	0.83335 0.61111 0.98434 0.35000
O 	O 	0.92442 0.74239 1.04009 -0.28900
O 	O 	0.90813 0.80430 0.85420 -0.39300
O 	O 	0.88809 0.55193 0.67446 -0.20800
O 	O 	0.85200 0.63199 1.07528 -0.28900
O 	O 	0.83494 0.63438 0.85096 -0.38400
O 	O 	0.83510 0.81037 0.78032 -0.37800
C 	C 	0.83465 0.88139 0.86720 0.33500
O 	O 	0.88170 0.67780 0.62541 -0.36800
C 	C 	0.89742 0.60427 0.61719 0.24700
C 	C 	0.92919 0.79017 0.96135 0.34700
Eu	Eu	0.12240 0.25244 0.13969 1.89900
O 	O 	0.18092 0.17140 0.10148 -0.29600
C 	C 	0.16751 0.36551 0.05843 0.28000
O 	O 	0.08015 0.14790 -0.04504 -0.25700
O 	O 	0.10546 0.13242 0.16015 -0.38800
O 	O 	0.05494 0.26377 0.15625 -0.26400
O 	O 	0.17368 0.30825 -0.02528 -0.26600
O 	O 	0.14059 0.37191 0.12688 -0.40300
O 	O 	0.15912 0.22390 0.30183 -0.39600
C 	C 	0.18250 0.18130 0.22942 0.35700
O 	O 	0.09067 0.31319 0.30627 -0.39000
C 	C 	0.06128 0.31335 0.25234 0.34200
C 	C 	0.08575 0.10774 0.05055 0.28200
Eu	Eu	0.61167 0.29439 0.88756 1.89500
O 	O 	0.62753 0.14491 1.02490 -0.24000
C 	C 	0.66639 0.34482 1.06516 0.27800
O 	O 	0.56051 0.24594 1.04234 -0.28500
O 	O 	0.57409 0.21549 0.81765 -0.40600
O 	O 	0.60056 0.45133 0.75956 -0.24100
O 	O 	0.65621 0.29585 1.12676 -0.28100
O 	O 	0.64978 0.37341 0.95435 -0.40700
O 	O 	0.64598 0.19015 0.83708 -0.37900
C 	C 	0.64900 0.14758 0.95204 0.26800
O 	O 	0.61145 0.32598 0.66404 -0.38700
C 	C 	0.59717 0.40089 0.66063 0.25200
C 	C 	0.55591 0.20823 0.92847 0.35400
C 	C 	0.30822 0.59432 0.01928 -0.11200
C 	C 	0.30871 0.53132 0.10234 0.15900
Cl	Cl	0.34294 0.49071 0.17291 -0.20700
C 	C 	0.28190 0.49847 0.12687 0.13200
Cl	Cl	0.28260 0.42173 0.23451 -0.19000
C 	C 	0.25452 0.52713 0.06687 -0.05900
C 	C 	0.22626 0.49553 0.09918 0.19900
N 	N 	0.20878 0.52716 0.20593 -0.05300
N 	N 	0.18524 0.48446 0.20152 -0.03600
C 	C 	0.18863 0.42710 0.09221 0.07300
N 	N 	0.21435 0.43263 0.02703 -0.08900
N 	N 	0.22572 0.38707 -0.09395 -0.13400
C 	C 	0.25395 0.58797 -0.01958 0.13200
Cl	Cl	0.21950 0.62264 -0.09715 -0.21200
C 	C 	0.28062 0.62205 -0.04281 0.15700
Cl	Cl	0.27861 0.70285 -0.14332 -0.22200
H 	H 	0.20915 0.38916 -0.17415 0.13300
H 	H 	0.22930 0.32874 -0.07172 0.14900
C 	C 	0.80579 0.92878 0.89313 -0.11800
C 	C 	0.78027 0.89165 0.92600 0.15800
Cl	Cl	0.78207 0.78881 0.93380 -0.24900
C 	C 	0.75334 0.93647 0.95853 0.12300
Cl	Cl	0.72207 0.89004 1.00812 -0.21800
C 	C 	0.75140 1.01840 0.95481 -0.05100
C 	C 	0.72358 0.06530 0.99702 0.17500
N 	N 	0.71668 0.08705 1.13280 -0.05600
N 	N 	0.68856 0.11808 1.13228 -0.04300
C 	C 	0.67861 0.11447 0.99625 0.08300
N 	N 	0.70014 0.08237 0.90930 -0.09300
N 	N 	0.69732 0.06222 0.76298 -0.13700
C 	C 	0.77621 0.05563 0.91644 0.11000
Cl	Cl	0.77325 0.15861 0.90814 -0.21200
C 	C 	0.80346 1.01101 0.88630 0.16900
Cl	Cl	0.83412 1.05875 0.83417 -0.19900
H 	H 	0.71387 0.08933 0.71559 0.13300
H 	H 	0.70205 1.00131 0.74296 0.13800
C 	C 	0.20902 0.14641 0.30247 -0.12200
C 	C 	0.23741 0.17345 0.28505 0.16200
Cl	Cl	0.23999 0.26188 0.21025 -0.23200
C 	C 	0.26358 0.12906 0.32309 0.12900
Cl	Cl	0.29916 0.16102 0.29461 -0.20800
C 	C 	0.26138 0.05686 0.37672 -0.06500
C 	C 	0.28792 1.00010 0.37824 0.20400
N 	N 	0.31134 0.00575 0.47143 -0.06200
N 	N 	0.33204 0.94885 0.42839 -0.03600
C 	C 	0.32104 0.90973 0.30892 0.07000
N 	N 	0.29334 0.94066 0.27608 -0.09600
N 	N 	0.27491 0.92133 0.15629 -0.13500
C 	C 	0.23302 0.03328 0.40525 0.12500
Cl	Cl	0.23028 0.94452 0.47859 -0.21000
C 	C 	0.20681 0.07847 0.36936 0.15900
Cl	Cl	0.17111 0.04637 0.39756 -0.23200
H 	H 	0.27055 0.86205 0.15325 0.14400
H 	H 	0.28685 0.92805 0.06753 0.13600
C 	C 	0.80897 0.56285 1.01606 -0.11000
C 	C 	0.80038 0.49941 0.91819 0.16100
Cl	Cl	0.81941 0.47367 0.75907 -0.20300
C 	C 	0.77721 0.45388 0.94870 0.12700
Cl	Cl	0.76762 0.37265 0.82737 -0.20400
C 	C 	0.76241 0.47121 1.07640 -0.06400
C 	C 	0.73788 0.42360 1.10793 0.18800
N 	N 	0.73948 0.37810 1.21381 -0.04900
N 	N 	0.71367 0.34446 1.21104 -0.03900
C 	C 	0.69656 0.37032 1.10418 0.07200
N 	N 	0.71114 0.41998 1.03747 -0.09200
N 	N 	0.70022 0.46039 0.92394 -0.13000
C 	C 	0.77109 0.53376 1.17486 0.13200
Cl	Cl	0.75245 0.55595 1.33560 -0.21300
C 	C 	0.79399 0.58010 1.14435 0.16100
Cl	Cl	0.80233 0.66275 1.26539 -0.21700
H 	H 	0.68219 0.49914 0.96014 0.12800
H 	H 	0.71652 0.49598 0.89773 0.13100
C 	C 	0.47634 0.63369 0.24731 -0.11400
C 	C 	0.47419 0.61352 0.38523 0.16100
Cl	Cl	0.44558 0.65870 0.49671 -0.23300
C 	C 	0.49561 0.55930 0.43899 0.12700
Cl	Cl	0.49028 0.52681 0.60397 -0.22800
C 	C 	0.52033 0.52794 0.35897 -0.06900
C 	C 	0.54271 0.47069 0.41535 0.18100
N 	N 	0.54599 0.39374 0.36427 -0.05600
N 	N 	0.56696 0.36002 0.44463 -0.05000
C 	C 	0.57634 0.41679 0.54314 0.07500
N 	N 	0.56159 0.48671 0.52672 -0.09400
N 	N 	0.56679 0.56034 0.60141 -0.13500
C 	C 	0.52313 0.54908 0.22332 0.13900
Cl	Cl	0.55451 0.51046 0.12387 -0.27200
C 	C 	0.50117 0.60097 0.16664 0.15400
Cl	Cl	0.50488 0.62118 -0.00826 -0.21700
H 	H 	0.57190 0.59765 0.52890 0.12800
H 	H 	0.54685 0.58341 0.64823 0.14700
C 	C 	0.95713 0.83229 0.97966 -0.11500
C 	C 	0.96751 0.86261 0.11548 0.16500
Cl	Cl	0.94651 0.85580 0.26513 -0.20300
C 	C 	0.99434 0.90086 0.13307 0.12600
Cl	Cl	1.00660 0.94000 0.30368 -0.19800
C 	C 	0.01105 0.90917 0.01540 -0.05300
C 	C 	0.03961 -0.05244 0.03520 0.17700
N 	N 	0.06352 -0.07999 0.11030 -0.04900
N 	N 	0.08341 -0.02575 0.12200 -0.03400
C 	C 	0.07149 0.03382 0.05252 0.08300
N 	N 	0.04412 0.01864 -0.00317 -0.09000
N 	N 	0.02289 0.07223 0.94024 -0.13300
C 	C 	0.00083 0.87935 0.87996 0.12400
Cl	Cl	0.02282 0.88480 0.73293 -0.20600
C 	C 	0.97389 0.84141 0.86182 0.16000
Cl	Cl	-0.03772 0.80242 0.69056 -0.20900
H 	H 	0.01536 0.04601 0.84233 0.14200
H 	H 	1.00460 0.08087 1.00633 0.12600
C 	C 	0.53128 0.15464 0.90739 -0.11500
C 	C 	0.50230 0.17946 0.95663 0.14500
Cl	Cl	0.49456 0.27525 0.04415 -0.21300
C 	C 	0.47881 0.12905 -0.06838 0.14100
Cl	Cl	0.44248 0.16157 -0.00985 -0.22400
C 	C 	0.48410 0.05372 0.85720 -0.08300
C 	C 	0.45953 1.00099 0.82941 0.18900
N 	N 	0.44531 0.98661 0.70298 -0.05500
N 	N 	0.42591 0.93329 0.71588 -0.04200
C 	C 	0.42873 0.91552 -0.15043 0.08800
N 	N 	0.44976 0.95684 -0.07688 -0.09100
N 	N 	0.45883 0.95528 0.06478 -0.13300
C 	C 	0.51289 0.02850 0.80855 0.12800
Cl	Cl	0.51965 0.93311 0.71729 -0.22000
C 	C 	0.53646 0.07846 0.83423 0.15600
Cl	Cl	0.57276 0.04342 0.77795 -0.22900
H 	H 	0.48209 0.94305 0.06948 0.13400
H 	H 	0.45431 1.01186 0.11622 0.13800
C 	C 	0.03797 0.37368 0.30741 -0.12000
C 	C 	0.03401 0.39093 0.45337 0.16300
Cl	Cl	0.05658 0.33959 0.57415 -0.23300
C 	C 	0.01122 0.44726 0.50392 0.12200
Cl	Cl	0.00778 0.47270 0.68752 -0.21500
C 	C 	-0.00814 0.48505 0.40866 -0.06600
C 	C 	-0.03292 0.54158 0.46029 0.18500
N 	N 	-0.03475 0.61882 0.44343 -0.04300
N 	N 	-0.06050 0.65009 0.49657 -0.03100
C 	C 	0.92589 0.59170 0.54447 0.08000
N 	N 	0.94268 0.52305 0.52299 -0.09500
N 	N 	0.93426 0.44777 0.54188 -0.13300
C 	C 	-0.00363 0.46992 0.26331 0.13200
Cl	Cl	-0.02742 0.51849 0.14286 -0.22300
C 	C 	0.01943 0.41486 0.21276 0.15400
Cl	Cl	0.02569 0.40061 0.03016 -0.22200
H 	H 	0.93590 0.41229 0.44545 0.12800
H 	H 	0.94979 0.42385 0.61260 0.14100
