data_crystal

_cell_length_a 33.27000
_cell_length_b 14.13790
_cell_length_c 9.73020
_cell_angle_alpha 71.78420
_cell_angle_beta  70.89740
_cell_angle_gamma 90.98500

_symmetry_space_group_name_	'P 1'
_symmetry_space_group_name_H-M	'P 1'

loop_
_symmetry_equiv_pos_as_xyz
  x,y,z

loop_
_atom_site_label
_atom_site_type_symbol
_atom_site_fract_x
_atom_site_fract_y
_atom_site_fract_z
_atom_site_charge
Eu	Eu	0.38696 0.72889 0.29329 1.90000
O 	O 	0.36917 0.91982 0.11835 -0.20700
C 	C 	0.34082 0.59498 0.18104 0.29300
O 	O 	0.48055 0.72648 0.15389 -0.23800
O 	O 	0.44402 0.78500 0.34242 -0.35400
O 	O 	0.36939 0.49410 0.41912 -0.25500
O 	O 	0.37851 0.58987 0.11602 -0.26300
O 	O 	0.33085 0.67095 0.24411 -0.37200
O 	O 	0.34065 0.83345 0.38544 -0.32500
C 	C 	0.34073 0.90492 0.24764 0.21200
O 	O 	0.36899 0.60940 0.53377 -0.38700
C 	C 	0.37926 0.51902 0.51446 0.26800
C 	C 	0.48000 0.74725 0.26814 0.20600
Eu	Eu	0.88113 0.79630 0.85865 1.81800
O 	O 	0.82611 0.92368 1.00390 -0.28200
C 	C 	0.80107 0.63167 0.96510 0.26800
O 	O 	0.94237 0.75598 1.04026 -0.29100
O 	O 	0.93584 0.89543 0.86186 -0.40300
O 	O 	0.92863 0.77508 0.63749 -0.13100
O 	O 	0.81339 0.60179 1.07618 -0.26200
O 	O 	0.82626 0.71023 0.83429 -0.40600
O 	O 	0.85739 0.93992 0.75114 -0.39500
C 	C 	0.82907 0.96858 0.87061 0.27700
O 	O 	0.92650 0.78098 0.63117 -0.13900
C 	C 	0.95367 0.71248 0.66134 0.04700
C 	C 	0.95714 0.84250 0.95758 0.30400
Eu	Eu	0.10452 0.26506 0.14479 1.96500
O 	O 	0.16389 0.10861 0.09992 -0.26500
C 	C 	0.15872 0.43564 0.16643 0.21400
O 	O 	0.09493 0.33499 -0.15804 -0.18800
O 	O 	0.06366 0.19478 0.04730 -0.38600
O 	O 	0.05402 0.44767 0.16281 -0.23400
O 	O 	0.16027 0.46861 0.03171 -0.19200
O 	O 	0.14433 0.33332 0.24880 -0.36300
O 	O 	0.10709 0.11173 0.30501 -0.36400
C 	C 	0.14726 0.08122 0.24036 0.26100
O 	O 	0.04507 0.28735 0.32135 -0.37300
C 	C 	0.03910 0.38848 0.29447 0.29400
C 	C 	0.06968 0.25798 -0.10199 0.27700
Eu	Eu	0.61912 0.35002 0.61073 1.90500
O 	O 	0.67573 0.20414 0.72097 -0.25000
C 	C 	0.67089 0.52000 0.63429 0.24700
O 	O 	0.57504 0.18100 0.92802 -0.26500
O 	O 	0.58524 0.19127 0.68218 -0.38000
O 	O 	0.54167 0.43575 0.53399 -0.20900
O 	O 	0.66639 0.44723 0.75044 -0.27800
O 	O 	0.65405 0.50980 0.52526 -0.33600
O 	O 	0.67936 0.29767 0.48055 -0.34000
C 	C 	0.69201 0.22106 0.58332 0.24400
O 	O 	0.59949 0.38072 0.40088 -0.34200
C 	C 	0.55596 0.38826 0.44836 0.22800
C 	C 	0.57713 0.13658 0.83621 0.28000
C 	C 	0.30693 0.51485 0.20774 -0.00200
C 	C 	0.31811 0.42474 0.18371 -0.06500
C 	C 	0.28680 0.34503 0.22136 0.17900
O 	O 	0.29992 0.25491 0.20205 -0.23500
C 	C 	0.24324 0.35641 0.28197 -0.06700
C 	C 	0.23128 0.44586 0.30833 0.01100
C 	C 	0.18488 0.45866 0.37473 0.43100
F 	F 	0.18082 0.52169 0.46111 -0.34500
F 	F 	0.16079 0.36697 0.47479 -0.36800
C 	C 	0.16598 0.50643 0.24760 0.37900
F 	F 	0.12662 0.53648 0.31111 -0.33600
F 	F 	0.19370 0.59094 0.13817 -0.35700
C 	C 	0.26345 0.52444 0.27344 0.01800
H 	H 	0.35180 0.41404 0.14372 0.11500
H 	H 	0.27478 0.20148 0.23201 0.18600
H 	H 	0.21903 0.29358 0.31238 0.10000
H 	H 	0.25467 0.59141 0.29889 0.15000
C 	C 	0.80609 1.05584 0.83467 -0.01100
C 	C 	0.78776 1.10300 0.94427 -0.05700
C 	C 	0.76679 0.18800 0.90324 0.15700
O 	O 	0.75091 0.24219 0.00338 -0.21700
C 	C 	0.76209 0.22021 0.76005 -0.04800
C 	C 	0.77843 0.17085 0.65147 0.00400
C 	C 	0.77071 0.20234 0.50166 0.43100
F 	F 	0.80085 0.16960 0.39428 -0.37100
F 	F 	0.77605 0.30639 0.44090 -0.40300
C 	C 	0.72543 0.15961 0.52057 0.37000
F 	F 	0.72436 0.16253 0.37769 -0.35600
F 	F 	0.71493 0.06042 0.61637 -0.37000
C 	C 	0.80088 0.08908 0.69057 0.02200
H 	H 	0.79045 1.07572 1.05642 0.10900
H 	H 	0.75750 0.21533 0.10374 0.22300
H 	H 	0.74671 0.28592 0.73073 0.10700
H 	H 	0.81396 0.05004 0.60961 0.11000
C 	C 	0.16850 0.01719 0.34045 0.01100
C 	C 	0.16181 0.02423 0.48546 -0.09400
C 	C 	0.18501 0.97304 0.57452 0.21200
O 	O 	0.17939 0.98587 0.71623 -0.24400
C 	C 	0.21544 0.91319 0.51792 -0.06500
C 	C 	0.22167 0.90239 0.37424 0.04900
C 	C 	0.25772 0.84880 0.30919 0.42800
F 	F 	0.24332 0.80685 0.21476 -0.34400
F 	F 	0.26506 0.77153 0.42186 -0.40900
C 	C 	0.29946 0.92390 0.20418 0.35600
F 	F 	0.30727 0.91976 0.04914 -0.33600
F 	F 	0.28930 1.01697 0.21640 -0.40800
C 	C 	0.19866 0.95638 0.28527 0.02900
H 	H 	0.14122 0.07357 0.52615 0.14800
H 	H 	0.19983 0.95099 0.76917 0.18000
H 	H 	0.23477 0.87732 0.58577 0.12200
H 	H 	0.20556 0.95576 0.16723 0.12600
C 	C 	0.75966 0.58763 0.97068 0.03000
C 	C 	0.74019 0.49248 1.07724 -0.16200
C 	C 	0.69989 0.45179 0.08542 0.29500
O 	O 	0.68306 0.35390 0.18300 -0.26100
C 	C 	0.67964 0.50803 0.99023 -0.15900
C 	C 	0.69940 0.60029 0.87506 0.05700
C 	C 	0.67949 0.65318 0.75797 0.42600
F 	F 	0.69002 0.75585 0.71131 -0.34900
F 	F 	0.63481 0.63299 0.82566 -0.39300
C 	C 	0.69372 0.61966 0.61163 0.37300
F 	F 	0.68652 0.69290 0.49185 -0.32100
F 	F 	0.73746 0.61291 0.56740 -0.38700
C 	C 	0.74037 0.63930 0.86395 -0.00500
H 	H 	0.75593 0.44786 0.15104 0.16900
H 	H 	0.65665 0.32795 0.17096 0.20300
H 	H 	0.64705 0.47830 0.00396 0.16300
H 	H 	0.75700 0.70873 0.77148 0.12000
C 	C 	0.40426 0.45640 0.59693 -0.01800
C 	C 	0.40420 0.45975 0.73857 -0.05500
C 	C 	0.42906 0.39997 0.81401 0.18400
O 	O 	0.42817 0.40507 0.95554 -0.26100
C 	C 	0.45510 0.33837 0.74465 -0.05400
C 	C 	0.45691 0.33730 0.59866 0.00600
C 	C 	0.48642 0.27483 0.51930 0.43000
F 	F 	0.46474 0.22656 0.45522 -0.36300
F 	F 	0.49868 0.20044 0.62584 -0.40600
C 	C 	0.52785 0.33934 0.38847 0.37600
F 	F 	0.55092 0.27745 0.31475 -0.35400
F 	F 	0.51717 0.41500 0.28111 -0.36900
C 	C 	0.43128 0.39611 0.52589 0.02700
H 	H 	0.38476 0.50829 0.79094 0.09500
H 	H 	0.44689 0.35983 1.00314 0.17600
H 	H 	0.47447 0.29298 0.80474 0.09200
H 	H 	0.43313 0.39548 0.41302 0.10800
C 	C 	0.99690 0.89165 0.95645 -0.02600
C 	C 	0.02299 0.83550 1.03159 -0.04600
C 	C 	0.06216 0.88059 1.01745 0.17800
O 	O 	0.08839 0.82546 1.09290 -0.22100
C 	C 	0.07663 0.98271 0.93132 -0.02800
C 	C 	0.05103 0.04000 0.85378 -0.03300
C 	C 	0.06844 0.14695 0.74159 0.45700
F 	F 	1.06101 0.15566 0.60565 -0.39500
F 	F 	0.11206 0.16699 0.70225 -0.41900
C 	C 	0.04699 0.22929 0.80426 0.29600
F 	F 	0.04976 0.31440 -0.31967 -0.30500
F 	F 	1.00372 0.19885 -0.10809 -0.36000
C 	C 	1.01145 0.99392 0.87036 0.06100
H 	H 	0.01298 0.75589 1.09609 0.10600
H 	H 	0.07402 0.75436 1.16303 0.19900
H 	H 	0.10659 0.01599 0.92330 0.10200
H 	H 	0.99097 0.03718 0.81166 0.09200
C 	C 	0.57340 0.02411 0.88871 0.01900
C 	C 	0.57023 -0.03221 0.79588 -0.08200
C 	C 	0.57209 0.86265 0.84429 0.21600
O 	O 	0.57313 0.80623 0.74926 -0.20900
C 	C 	0.57016 0.81314 0.99570 -0.06100
C 	C 	0.56599 0.86667 1.09895 0.00500
C 	C 	0.55227 0.81172 0.27163 0.45400
F 	F 	0.54062 0.87801 0.35488 -0.37000
F 	F 	0.58818 0.77247 1.30001 -0.36200
C 	C 	0.51478 0.72438 0.33526 0.36500
F 	F 	0.53109 0.64022 0.30911 -0.35900
F 	F 	0.49697 0.70191 0.49631 -0.34800
C 	C 	0.57090 -0.02797 1.04129 -0.02800
H 	H 	0.56794 0.00294 0.68224 0.12500
H 	H 	0.57844 0.84859 0.63741 0.22300
H 	H 	0.57008 0.73252 1.03290 0.15300
H 	H 	0.57473 0.01376 0.11282 0.14600
C 	C 	0.01294 0.42156 0.42034 0.00900
C 	C 	0.97908 0.35355 0.54461 -0.05200
C 	C 	0.95835 0.37921 0.67728 0.20300
O 	O 	0.92423 0.31312 0.79843 -0.24100
C 	C 	0.97173 0.47072 0.68789 -0.05900
C 	C 	1.00556 0.53879 0.56334 0.03100
C 	C 	1.02194 0.63375 0.58314 0.39800
F 	F 	0.06510 0.66314 0.48863 -0.32800
F 	F 	1.02135 0.61779 0.73343 -0.38600
C 	C 	0.99696 0.72157 0.53982 0.41700
F 	F 	1.01915 0.80737 0.52883 -0.36700
F 	F 	-0.00785 0.73257 0.39679 -0.40400
C 	C 	0.02477 0.51487 0.42891 0.03400
H 	H 	0.97050 0.28150 0.54215 0.10300
H 	H 	0.91027 0.26383 0.76588 0.16600
H 	H 	0.95715 0.48630 0.79314 0.10100
H 	H 	0.05018 0.56910 0.33144 0.12900
