data_crystal

_cell_length_a 15.72090
_cell_length_b 18.57510
_cell_length_c 31.61250
_cell_angle_alpha 110.89810
_cell_angle_beta  91.36220
_cell_angle_gamma 89.52370

_symmetry_space_group_name_	'P 1'
_symmetry_space_group_name_H-M	'P 1'

loop_
_symmetry_equiv_pos_as_xyz
  x,y,z

loop_
_atom_site_label
_atom_site_type_symbol
_atom_site_fract_x
_atom_site_fract_y
_atom_site_fract_z
_atom_site_charge
Ho	Ho	0.73381 0.16586 0.42093 1.75200
Ho	Ho	0.77271 0.33200 0.58045 1.85000
C 	C 	0.85759 0.21114 0.37923 0.23800
C 	C 	0.61908 0.11850 0.35395 0.31700
C 	C 	0.86176 0.22146 0.50156 0.32600
C 	C 	0.66555 0.27690 0.62463 0.31200
C 	C 	0.86780 0.29538 0.63979 0.30400
C 	C 	0.67229 0.31716 0.49029 0.38200
O 	O 	0.85629 0.22026 0.42067 -0.32100
O 	O 	0.78810 0.18239 0.35936 -0.33200
O 	O 	0.61473 0.10866 0.39125 -0.48300
O 	O 	0.68608 0.15477 0.35174 -0.36000
O 	O 	0.84545 0.22585 0.46278 -0.36300
O 	O 	0.87807 0.28399 0.53432 -0.46700
O 	O 	0.72133 0.23745 0.59762 -0.38600
O 	O 	0.66242 0.34617 0.62580 -0.44800
O 	O 	0.82790 0.24649 0.60676 -0.35900
O 	O 	0.85910 0.36378 0.64053 -0.44500
O 	O 	0.69466 0.28347 0.51758 -0.54200
O 	O 	0.67146 0.27904 0.44769 -0.45600
Ho	Ho	0.22894 0.76220 0.44219 1.94900
Ho	Ho	0.30544 0.78812 0.59131 1.97300
C 	C 	0.32446 0.74892 0.37285 0.31400
C 	C 	0.09949 0.76412 0.39165 0.28300
C 	C 	0.33977 0.68960 0.49361 0.42000
C 	C 	0.20296 0.69359 0.61590 0.38700
C 	C 	0.41265 0.80163 0.65629 0.29500
C 	C 	0.18936 0.86285 0.54077 0.38400
O 	O 	0.32594 0.80676 0.40935 -0.46500
O 	O 	0.26338 0.70325 0.37059 -0.38100
O 	O 	0.12510 0.82314 0.42454 -0.47200
O 	O 	0.14969 0.70574 0.38163 -0.40300
O 	O 	0.32609 0.68451 0.45303 -0.51100
O 	O 	0.28024 0.71330 0.52142 -0.55800
O 	O 	0.25420 0.67264 0.58473 -0.44400
O 	O 	0.20563 0.76469 0.63421 -0.43800
O 	O 	0.41555 0.74566 0.61827 -0.46000
O 	O 	0.35096 0.84835 0.65980 -0.46100
O 	O 	0.19648 0.85185 0.57816 -0.49700
O 	O 	0.24937 0.84116 0.51258 -0.56400
Ho	Ho	0.22339 0.28709 0.08400 1.91500
Ho	Ho	0.27657 0.27234 0.93148 1.90500
C 	C 	0.31643 0.22728 0.13485 0.30500
C 	C 	0.12527 0.30699 0.15188 0.27300
C 	C 	0.35387 0.33331 1.02848 0.41800
C 	C 	0.12997 0.25682 0.88657 0.31000
C 	C 	0.32533 0.30325 0.86212 0.26100
C 	C 	0.21239 0.17319 -0.01616 0.42800
O 	O 	0.28896 0.18941 0.09517 -0.44600
O 	O 	0.29354 0.29744 0.14788 -0.35300
O 	O 	0.10589 0.26249 0.11157 -0.45500
O 	O 	0.19722 0.34160 0.15577 -0.38400
O 	O 	0.34467 0.32739 0.06698 -0.50500
O 	O 	0.28849 0.33533 1.00468 -0.56400
O 	O 	0.14199 0.30220 0.92689 -0.45100
O 	O 	0.19668 0.22018 0.86933 -0.35900
O 	O 	0.32568 0.35429 0.90229 -0.44900
O 	O 	0.29361 0.23789 0.85909 -0.38000
O 	O 	0.24062 0.16827 0.94548 -0.51300
O 	O 	0.18945 0.23859 0.01120 -0.55200
Ho	Ho	0.72502 0.76760 0.07235 1.92300
Ho	Ho	0.83358 0.72097 0.92624 1.92700
C 	C 	0.80602 0.78787 0.15001 0.31000
C 	C 	0.60545 0.75111 0.12397 0.27600
C 	C 	0.83091 0.85095 1.02340 0.37600
C 	C 	0.78358 0.80615 0.87854 0.31900
C 	C 	0.94590 0.68834 0.86279 0.28100
C 	C 	0.74071 0.63811 -0.02194 0.40800
O 	O 	0.82380 0.73545 0.11305 -0.43400
O 	O 	0.74723 0.83181 0.14550 -0.36500
O 	O 	0.63228 0.69581 0.08947 -0.44800
O 	O 	0.64089 0.81633 0.12997 -0.38600
O 	O 	0.80893 0.85543 0.06298 -0.48100
O 	O 	0.78628 0.80978 0.98905 -0.53500
O 	O 	0.85282 0.81646 0.90145 -0.38800
O 	O 	0.73974 0.75205 0.88244 -0.44900
O 	O 	0.94182 0.75524 0.89411 -0.38400
O 	O 	0.89275 0.64026 0.86694 -0.45700
O 	O 	0.75432 0.63286 0.93779 -0.50900
O 	O 	0.77872 0.69116 0.00929 -0.57900
C 	C 	0.84600 0.14905 0.50932 -0.13500
C 	C 	0.76348 0.12290 0.51176 -0.06400
C 	C 	0.75072 0.05915 0.52512 0.11100
O 	O 	0.67061 0.03698 0.53532 -0.21000
C 	C 	0.59650 0.07662 0.52858 -0.01800
C 	C 	0.82120 1.01629 0.53015 -0.05400
C 	C 	0.90368 0.03641 0.52244 -0.02900
C 	C 	0.97690 0.98760 0.52493 0.12000
N 	N 	0.97289 0.94138 0.54979 -0.08700
N 	N 	0.03981 0.89944 0.55346 -0.05600
C 	C 	0.11279 0.90089 0.53169 -0.02700
N 	N 	0.11677 0.94657 0.50655 -0.06400
N 	N 	0.04997 0.98893 0.50309 -0.08200
C 	C 	0.91575 0.10448 0.51354 0.01500
H 	H 	0.70961 0.15326 0.50502 -0.01500
H 	H 	0.54025 0.05178 0.53898 0.03600
H 	H 	0.58831 0.06855 0.49219 0.02000
H 	H 	0.59994 0.13865 0.54993 0.04400
H 	H 	0.81103 0.96614 0.53936 0.06300
H 	H 	0.97941 0.12293 0.50979 0.03500
C 	C 	0.21217 0.10480 -0.00328 -0.14600
C 	C 	0.28945 0.07368 0.00507 -0.01400
C 	C 	0.29018 0.01019 0.01975 0.10300
O 	O 	0.36468 0.97945 0.03245 -0.16800
C 	C 	0.44315 0.01810 0.03357 -0.04700
C 	C 	0.21273 0.97603 0.02290 -0.05400
C 	C 	0.13503 1.00426 0.01231 0.00200
C 	C 	0.05462 0.96569 0.01518 0.11400
N 	N 	0.04488 0.93599 0.04827 -0.07800
N 	N 	0.97366 0.89932 0.05045 -0.05900
C 	C 	0.91001 0.88932 0.01910 -0.02100
N 	N 	0.91922 0.91949 0.98617 -0.06500
N 	N 	0.99018 0.95714 -0.01571 -0.08000
C 	C 	0.13508 0.06943 -0.00038 0.01200
H 	H 	0.34779 0.10149 0.00170 0.02300
H 	H 	0.49414 0.98941 1.04650 0.05400
H 	H 	0.43967 0.07916 0.05685 0.05500
H 	H 	0.45964 0.01431 0.99889 0.03700
H 	H 	0.21348 0.92652 0.03340 0.07300
H 	H 	0.07544 0.09274 0.99216 0.03100
C 	C 	0.42719 0.68618 0.50952 -0.16500
C 	C 	0.48004 0.74995 0.51695 -0.04800
C 	C 	0.56622 0.74737 0.52960 0.11400
O 	O 	0.62333 0.80875 0.53766 -0.20000
C 	C 	0.60209 0.86596 0.51899 -0.03000
C 	C 	0.59853 0.67997 0.53364 -0.07200
C 	C 	0.54659 0.61534 0.52518 -0.00700
C 	C 	0.58592 0.54144 0.52088 0.10800
N 	N 	0.64606 0.51188 0.48932 -0.08700
N 	N 	0.67696 0.44158 0.48150 -0.06100
C 	C 	0.65037 0.39894 0.50564 -0.04500
N 	N 	0.59121 0.42899 0.53791 -0.07800
N 	N 	0.55926 0.49916 0.54534 -0.08400
C 	C 	0.46007 0.61907 0.51416 0.03100
H 	H 	0.45333 0.80065 0.51244 0.00400
H 	H 	0.65840 0.90334 0.52366 0.05900
H 	H 	0.54756 0.90120 0.53691 0.03700
H 	H 	0.58803 0.83910 0.48202 0.04100
H 	H 	0.66551 0.67748 0.54202 0.06600
H 	H 	0.41987 0.56882 0.50671 0.03700
C 	C 	0.43920 0.32791 1.01051 -0.17000
C 	C 	0.48351 0.25847 1.00006 -0.03600
C 	C 	0.56983 0.25380 0.98801 0.11000
O 	O 	0.61736 0.18497 0.97541 -0.19500
C 	C 	0.57404 0.11612 0.97259 -0.02900
C 	C 	0.61093 0.32074 0.98831 -0.06900
C 	C 	0.56584 0.39010 0.99794 -0.01200
C 	C 	0.60726 0.45821 0.99481 0.11300
N 	N 	0.66455 0.49941 1.02694 -0.07700
N 	N 	0.70363 0.56003 1.02302 -0.06700
C 	C 	0.68652 0.58164 -0.01309 -0.03600
N 	N 	0.62896 0.54042 -0.04504 -0.05200
N 	N 	0.58933 0.48031 -0.04094 -0.07900
C 	C 	0.47971 0.39333 0.00857 0.02400
H 	H 	0.44987 0.20917 1.00203 0.01400
H 	H 	0.61811 0.06659 -0.04021 0.04700
H 	H 	0.51866 0.10539 0.94857 0.03000
H 	H 	0.55324 0.12038 0.00672 0.03900
H 	H 	0.67770 0.31810 0.98001 0.06800
H 	H 	0.44538 0.44734 0.01694 0.03000
C 	C 	0.93620 0.22738 0.35957 -0.01200
C 	C 	1.01299 0.22650 0.38351 -0.09100
C 	C 	0.09132 0.24276 0.36856 0.15200
O 	O 	0.17044 0.23930 0.38986 -0.19400
C 	C 	0.17433 0.20004 0.42139 -0.02800
C 	C 	0.09133 0.26408 0.33066 -0.09600
C 	C 	0.01575 0.26625 0.30641 0.03000
C 	C 	0.02281 0.29041 0.26715 0.10700
N 	N 	-0.00929 0.24621 0.22585 -0.07500
N 	N 	0.01734 0.25616 0.18854 -0.05800
C 	C 	0.07703 0.31039 0.19141 0.05500
N 	N 	0.10517 0.35714 0.23278 -0.05400
N 	N 	1.07842 0.34748 0.26991 -0.08000
C 	C 	0.93785 0.24542 0.32003 -0.04100
H 	H 	1.01124 0.21230 0.41379 0.06900
H 	H 	0.24160 0.19737 0.43203 0.05200
H 	H 	0.15070 0.13992 0.40530 0.04400
H 	H 	0.13810 0.23172 0.45224 0.04500
H 	H 	0.15175 0.27705 0.31917 0.08700
H 	H 	0.87938 0.24632 0.30133 0.06600
C 	C 	0.01291 0.76116 0.37354 -0.03000
C 	C 	0.94633 0.76115 0.40234 -0.07300
C 	C 	0.86114 0.76753 0.38946 0.13900
O 	O 	0.79098 0.76707 0.41649 -0.19600
C 	C 	0.80701 0.76539 0.46088 -0.03100
C 	C 	0.84460 0.77523 0.34762 -0.08800
C 	C 	0.91093 0.77520 0.31843 0.01200
C 	C 	0.89030 0.78458 0.27502 0.10600
N 	N 	0.93513 0.74700 0.23723 -0.07800
N 	N 	0.91045 0.75005 0.19725 -0.05800
C 	C 	0.84110 0.79200 0.19393 0.04500
N 	N 	0.79757 0.83071 0.23178 -0.05500
N 	N 	0.82154 0.82691 0.27152 -0.08300
C 	C 	-0.00447 0.76738 0.33143 -0.01800
H 	H 	0.96210 0.75670 0.43483 0.04400
H 	H 	0.74541 0.76509 0.47718 0.05300
H 	H 	0.84281 0.81759 0.48224 0.04600
H 	H 	0.84174 0.71210 0.45923 0.04100
H 	H 	0.77912 0.78045 0.33762 0.07700
H 	H 	0.04757 0.76956 0.31002 0.05700
C 	C 	0.04769 0.24691 0.86267 -0.04400
C 	C 	-0.02547 0.23664 0.88433 -0.06400
C 	C 	0.89529 0.22223 0.86096 0.13200
O 	O 	0.81938 0.20829 0.87964 -0.18800
C 	C 	0.82292 0.20527 0.92413 -0.03200
C 	C 	0.89055 0.22168 0.81660 -0.08100
C 	C 	0.96278 0.23597 0.79561 0.01100
C 	C 	0.95261 0.24527 0.75158 0.10700
N 	N 	0.97769 0.31147 0.74650 -0.07500
N 	N 	0.95481 0.32632 0.70953 -0.05700
C 	C 	0.90725 0.27477 0.67620 0.04300
N 	N 	0.88457 0.20765 0.68070 -0.06200
N 	N 	-0.09377 0.19337 0.71790 -0.07700
C 	C 	0.04182 0.24694 0.81836 -0.01400
H 	H 	-0.01942 0.23821 0.91883 0.05800
H 	H 	0.75869 0.19114 0.93268 0.06000
H 	H 	0.84235 0.26201 0.94934 0.04600
H 	H 	0.86714 0.15933 0.92559 0.04100
H 	H 	0.82924 0.21274 0.79899 0.08000
H 	H 	0.09819 0.25645 0.80195 0.06300
C 	C 	0.55244 0.08885 0.31810 -0.04300
C 	C 	0.49994 0.02901 0.31995 -0.06500
C 	C 	0.43152 0.00121 0.28906 0.14200
O 	O 	0.37328 -0.05500 0.29099 -0.18800
C 	C 	0.37299 -0.07400 0.33102 -0.04000
C 	C 	0.41802 0.03238 0.25531 -0.08400
C 	C 	0.46855 0.09286 0.25284 0.01900
C 	C 	0.44257 0.12862 0.21936 0.10600
N 	N 	0.40746 0.08394 0.17882 -0.07900
N 	N 	0.36971 0.11539 0.15142 -0.06000
C 	C 	0.36500 0.19302 0.16348 0.04400
N 	N 	0.40152 0.23800 0.20355 -0.05400
N 	N 	0.43941 0.20648 0.23105 -0.07600
C 	C 	0.53647 0.12117 0.28448 -0.01800
H 	H 	0.51268 0.00452 0.34581 0.06100
H 	H 	0.31703 0.88897 0.32946 0.06100
H 	H 	0.36678 -0.02132 0.36172 0.04600
H 	H 	0.43153 -0.10632 0.33345 0.04700
H 	H 	0.36412 0.01175 0.23219 0.08200
H 	H 	0.57532 0.16855 0.28352 0.06300
C 	C 	0.76158 0.84850 0.84808 -0.04000
C 	C 	0.81589 0.90737 0.84684 -0.06700
C 	C 	0.80064 0.94552 0.81591 0.14100
O 	O 	0.85379 1.00354 0.81199 -0.18400
C 	C 	0.93114 1.02014 0.83817 -0.03100
C 	C 	0.72892 0.92525 0.78729 -0.08600
C 	C 	0.67469 0.86637 0.78796 0.01700
C 	C 	0.60213 0.84541 0.75625 0.10500
N 	N 	0.60296 0.77877 0.71976 -0.07900
N 	N 	0.54119 0.76352 0.68821 -0.05900
C 	C 	0.47662 0.81434 0.69234 0.04400
N 	N 	0.47558 0.88067 0.72901 -0.05700
N 	N 	0.53759 0.89621 0.76035 -0.07700
C 	C 	0.69130 0.82734 0.81790 -0.02200
H 	H 	0.87011 0.92246 0.86992 0.07600
H 	H 	0.96750 1.06372 0.82952 0.06000
H 	H 	0.97070 0.96726 0.83009 0.05600
H 	H 	0.91733 1.04414 0.87485 0.04900
H 	H 	0.71596 0.95495 0.76386 0.08100
H 	H 	0.65009 0.78046 0.81726 0.06000
C 	C 	0.39903 0.72656 0.34391 -0.04100
C 	C 	0.47005 0.69968 0.36175 -0.06500
C 	C 	0.54463 0.67664 0.33667 0.13900
O 	O 	0.61818 0.64891 0.35242 -0.18500
C 	C 	0.61855 0.64553 0.39690 -0.02900
C 	C 	0.54672 0.68145 0.29362 -0.08500
C 	C 	0.47655 0.70884 0.27545 0.01900
C 	C 	0.48650 0.71811 0.23158 0.10700
N 	N 	0.51121 0.65692 0.19527 -0.07600
N 	N 	0.54220 0.66709 0.15897 -0.05800
C 	C 	0.55081 0.73904 0.15785 0.05400
N 	N 	0.52362 0.80010 0.19357 -0.05600
N 	N 	0.49176 0.78984 0.22971 -0.07400
C 	C 	0.40201 0.73108 0.30057 -0.02100
H 	H 	0.46591 0.69657 0.39519 0.06000
H 	H 	0.68100 0.62293 0.40359 0.05900
H 	H 	0.56837 0.60579 0.39974 0.05300
H 	H 	0.61032 0.70397 0.42280 0.04800
H 	H 	0.60466 0.66531 0.27455 0.08200
H 	H 	0.34774 0.75225 0.28675 0.05300
C 	C 	0.62155 0.24540 0.65522 -0.03800
C 	C 	0.64836 0.17255 0.65514 -0.07100
C 	C 	0.61771 0.14226 0.68676 0.14200
O 	O 	0.64554 0.07217 0.69035 -0.19200
C 	C 	0.71754 0.03439 0.66512 -0.03300
C 	C 	0.55631 0.18362 0.71677 -0.08900
C 	C 	0.52740 0.25545 0.71714 0.02000
C 	C 	0.46096 0.29231 0.74971 0.10400
N 	N 	0.48334 0.34436 0.79105 -0.07600
N 	N 	0.43442 0.35523 0.82678 -0.06300
C 	C 	0.36219 0.31340 0.82247 0.05500
N 	N 	0.33775 0.26450 0.78078 -0.05800
N 	N 	0.38606 0.25427 0.74514 -0.07800
C 	C 	0.56152 0.28780 0.68711 -0.02500
H 	H 	0.69470 0.14031 0.63089 0.08200
H 	H 	0.77352 0.07349 0.67337 0.06000
H 	H 	0.73405 -0.01605 0.67470 0.05400
H 	H 	0.70249 0.01301 0.62820 0.05000
H 	H 	0.53120 0.15968 0.74064 0.08000
H 	H 	0.54160 0.34462 0.68851 0.05900
C 	C 	0.14875 0.64182 0.62941 -0.07200
C 	C 	0.12422 0.57005 0.59764 -0.05700
C 	C 	0.07259 0.51990 0.61048 0.13800
O 	O 	0.04001 0.44964 0.57976 -0.19900
C 	C 	0.03902 0.43857 0.53262 -0.02700
C 	C 	1.05162 0.54061 0.65610 -0.09700
C 	C 	0.07743 0.61179 0.68851 0.02300
C 	C 	1.05410 0.63220 0.73649 0.10000
N 	N 	1.02408 0.57696 0.75092 -0.07600
N 	N 	0.99542 0.59507 0.79262 -0.05600
C 	C 	0.99652 0.66899 0.82195 0.04900
N 	N 	1.02899 0.72444 0.80827 -0.06100
N 	N 	0.05766 0.70622 0.76629 -0.07400
C 	C 	0.12331 0.66330 0.67442 -0.01100
H 	H 	0.14481 0.55440 0.56309 0.06000
H 	H 	1.00296 0.38525 0.51366 0.05000
H 	H 	0.10464 0.43129 0.51947 0.04700
H 	H 	0.00655 0.48757 0.52659 0.03700
H 	H 	1.01270 0.50154 0.66595 0.08300
H 	H 	0.14184 0.71911 0.69867 0.06300
