data_crystal

_cell_length_a 35.84700
_cell_length_b 13.67140
_cell_length_c 6.60660
_cell_angle_alpha 97.41370
_cell_angle_beta  91.01080
_cell_angle_gamma 86.07920

_symmetry_space_group_name_	'P 1'
_symmetry_space_group_name_H-M	'P 1'

loop_
_symmetry_equiv_pos_as_xyz
  x,y,z

loop_
_atom_site_label
_atom_site_type_symbol
_atom_site_fract_x
_atom_site_fract_y
_atom_site_fract_z
_atom_site_charge
Eu	Eu	0.36360 0.75511 0.11941 1.96900
O 	O 	0.26930 0.91515 0.12740 -0.14400
C 	C 	0.33208 0.54266 0.13132 0.37000
O 	O 	0.41015 0.92825 -0.26939 -0.14200
O 	O 	0.38403 0.89866 0.02404 -0.36600
O 	O 	0.42223 0.60450 0.13701 -0.28600
O 	O 	0.34134 0.52764 -0.04653 -0.26400
O 	O 	0.34383 0.62339 0.25807 -0.40800
O 	O 	0.31922 0.85416 0.30279 -0.35900
C 	C 	0.28400 0.84535 0.20784 0.17800
O 	O 	0.40788 0.73942 0.36465 -0.37100
C 	C 	0.42714 0.64753 0.30649 0.33600
C 	C 	0.41355 0.88776 -0.11490 0.18600
Eu	Eu	0.90061 0.77604 0.79166 2.04300
O 	O 	0.83892 0.97129 0.72636 -0.23100
C 	C 	0.83654 0.63994 0.79085 0.31700
O 	O 	0.93002 0.83565 1.19766 -0.28000
O 	O 	0.93230 0.91061 0.91446 -0.42000
O 	O 	0.99194 0.58535 0.54928 -0.08800
O 	O 	0.82814 0.70946 0.92101 -0.31600
O 	O 	0.86986 0.63858 0.68506 -0.40800
O 	O 	0.87290 0.85003 0.53197 -0.42300
C 	C 	0.83894 0.90068 0.59302 0.27600
O 	O 	0.94811 0.71304 0.57475 -0.33100
C 	C 	0.97157 0.64340 0.66033 0.20400
C 	C 	0.94391 0.89775 1.11256 0.30600
Eu	Eu	0.14323 0.23048 0.36448 1.98300
O 	O 	0.20455 0.08442 0.61698 -0.16900
C 	C 	0.22445 0.20840 0.18195 0.18700
O 	O 	0.08192 0.27003 0.03817 -0.19400
O 	O 	0.07977 0.23823 0.36657 -0.39400
O 	O 	0.10180 0.43421 0.41638 -0.22900
O 	O 	0.25330 0.15606 0.15730 -0.11500
O 	O 	0.20687 0.21784 0.37014 -0.36100
O 	O 	0.14210 0.12015 0.59778 -0.40500
C 	C 	0.17355 0.05390 0.58012 0.26200
O 	O 	0.14222 0.35940 0.62197 -0.35100
C 	C 	0.11253 0.42729 0.58947 0.30600
C 	C 	0.06290 0.25247 0.17963 0.23600
Eu	Eu	0.60389 0.26279 0.67921 2.07400
O 	O 	0.66893 0.13679 0.80545 -0.19900
C 	C 	0.66612 0.37771 0.89094 0.27800
O 	O 	0.53465 0.29535 0.94016 -0.26800
O 	O 	0.55091 0.18010 0.67743 -0.42700
O 	O 	0.55967 0.45639 0.25738 -0.10900
O 	O 	0.65035 0.34432 1.02728 -0.20000
O 	O 	0.65716 0.34502 0.68897 -0.32900
O 	O 	0.63463 0.12395 0.51321 -0.35300
C 	C 	0.66178 0.08724 0.64330 0.26300
O 	O 	0.58577 0.32031 0.37941 -0.37200
C 	C 	0.57373 0.42095 0.40371 0.20900
C 	C 	0.53219 0.21077 0.85939 0.27900
C 	C 	0.30544 0.48262 0.21787 -0.09200
C 	C 	0.30813 0.47161 0.42516 0.11800
N 	N 	0.28000 0.43443 0.51868 -0.09300
C 	C 	0.24832 0.40760 0.41699 0.11700
C 	C 	0.24423 0.41520 0.20799 -0.06500
C 	C 	0.20895 0.38292 0.09379 0.45900
F 	F 	0.17813 0.40775 0.21960 -0.46700
F 	F 	0.20354 0.43316 -0.07431 -0.37100
C 	C 	0.21076 0.27051 0.01940 0.33800
F 	F 	0.17565 0.24225 -0.04517 -0.46300
F 	F 	0.23462 0.25107 -0.14551 -0.37000
C 	C 	0.27379 0.45077 0.10686 0.11500
H 	H 	0.33216 0.49578 0.51483 0.04500
H 	H 	0.22589 0.38340 0.50201 0.09000
H 	H 	0.27125 0.45909 -0.05341 0.10800
C 	C 	0.80363 0.86986 0.49143 -0.09000
C 	C 	0.80014 0.77095 0.40945 0.08600
N 	N 	0.76667 0.74094 0.33329 -0.08500
C 	C 	0.73648 0.80510 0.32221 0.11000
C 	C 	0.73864 0.90586 0.39600 -0.02200
C 	C 	0.70478 0.97915 0.39137 0.44700
F 	F 	0.71686 1.07124 0.36433 -0.39400
F 	F 	0.68227 0.94968 0.22450 -0.33900
C 	C 	0.68149 -0.01418 0.58919 0.37000
F 	F 	0.65430 -0.08277 0.56281 -0.31300
F 	F 	0.70427 -0.03572 0.75229 -0.35100
C 	C 	0.77248 0.93720 0.48425 0.07700
H 	H 	0.82356 0.71674 0.41299 0.03700
H 	H 	0.71079 0.77763 0.25731 0.14600
H 	H 	0.77454 1.01446 0.54605 0.09700
C 	C 	0.16984 -0.05057 0.49667 -0.08600
C 	C 	0.13504 -0.09149 0.49244 0.08200
N 	N 	0.13079 0.81696 0.39198 -0.10700
C 	C 	0.15966 0.76228 0.29273 0.10100
C 	C 	0.19561 0.79894 0.28963 -0.04300
C 	C 	0.22371 0.74924 0.13022 0.44600
F 	F 	0.21608 0.64988 0.08790 -0.35800
F 	F 	0.21789 0.79120 -0.04945 -0.39000
C 	C 	0.26582 0.74864 0.18958 0.36900
F 	F 	0.27137 0.70784 0.36989 -0.40200
F 	F 	0.28473 0.68911 0.03500 -0.44500
C 	C 	0.20020 0.89305 0.39874 0.05400
H 	H 	0.11112 -0.04995 0.56557 0.03900
H 	H 	0.15401 0.69215 0.20647 0.09600
H 	H 	0.22620 0.92690 0.39674 0.06900
C 	C 	0.81126 0.55977 0.74054 -0.08900
C 	C 	0.82424 0.46890 0.63367 0.10200
N 	N 	0.80050 0.39597 0.58482 -0.08300
C 	C 	0.76364 0.40815 0.63311 0.12000
C 	C 	0.74896 0.49805 0.73748 -0.03500
C 	C 	0.70749 0.51268 0.78225 0.46300
F 	F 	0.69806 0.61181 0.84604 -0.33300
F 	F 	0.68877 0.49055 0.59932 -0.33500
C 	C 	0.69564 0.45067 0.95077 0.36600
F 	F 	0.68148 0.51535 1.11507 -0.30000
F 	F 	0.72629 0.39818 1.02526 -0.38100
C 	C 	0.77333 0.57364 0.79329 0.08100
H 	H 	0.85325 0.45489 0.59024 0.08800
H 	H 	0.74574 0.34809 0.59059 0.09900
H 	H 	0.76286 0.64415 0.87246 0.09600
C 	C 	0.45096 0.59916 0.45073 -0.07000
C 	C 	0.43532 0.53973 0.57994 0.09900
N 	N 	0.45696 0.49941 0.72261 -0.10300
C 	C 	0.49413 0.51299 0.74121 0.10300
C 	C 	0.51165 0.56783 0.60855 -0.04800
C 	C 	0.55333 0.58307 0.62805 0.47200
F 	F 	0.56415 0.63929 0.48284 -0.32900
F 	F 	0.55990 0.63526 0.81696 -0.30000
C 	C 	0.57859 0.48585 0.60519 0.34900
F 	F 	0.61516 0.51145 0.61773 -0.31100
F 	F 	0.57272 0.43339 0.76605 -0.53200
C 	C 	0.48916 0.61299 0.46518 0.10400
H 	H 	0.40581 0.52784 0.57162 0.02800
H 	H 	0.50958 0.48269 0.86264 0.09100
H 	H 	0.50131 0.65713 0.36226 0.13600
C 	C 	0.97341 0.95547 0.21810 -0.06100
C 	C 	0.99933 0.91122 0.34579 0.08200
N 	N 	0.02498 0.96590 0.45350 -0.10700
C 	C 	0.02625 1.06438 0.44495 0.09300
C 	C 	0.00077 1.11266 0.32154 -0.05900
C 	C 	-0.00142 0.22393 0.32883 0.46700
F 	F 	0.96151 0.25750 0.30843 -0.34000
F 	F 	0.01064 0.26763 0.51774 -0.36200
C 	C 	0.02073 0.25814 0.15521 0.36100
F 	F 	0.00928 0.35564 0.13951 -0.29300
F 	F 	0.01170 0.20262 -0.02730 -0.36000
C 	C 	0.97465 1.05643 0.20450 0.06400
H 	H 	0.99931 0.83303 0.35823 0.08100
H 	H 	0.04685 1.10452 0.53626 0.06700
H 	H 	0.95424 0.09181 0.11032 0.11400
C 	C 	0.51221 0.14012 -0.03741 -0.07600
C 	C 	0.50289 0.16277 0.16883 0.08300
N 	N 	0.49026 0.09250 0.27295 -0.09600
C 	C 	0.48423 1.00032 0.18025 0.08300
C 	C 	0.48988 0.97536 -0.03159 -0.05000
C 	C 	0.48486 0.87079 -0.13852 0.46200
F 	F 	0.48512 0.87008 0.65166 -0.38900
F 	F 	0.51514 0.81067 -0.08678 -0.31600
C 	C 	0.44866 0.82500 -0.08142 0.36200
F 	F 	0.44579 0.73561 -0.20042 -0.40800
F 	F 	0.45068 0.80616 0.11731 -0.42900
C 	C 	0.50438 1.04705 -0.13912 0.07600
H 	H 	0.50867 0.23408 0.25268 0.04700
H 	H 	0.47530 0.94747 0.27391 0.11400
H 	H 	0.51087 1.02932 0.70027 0.09000
C 	C 	0.09302 0.48715 0.76241 -0.06100
C 	C 	0.11294 0.53537 0.92436 0.08400
N 	N 	0.09444 0.58703 1.08588 -0.10100
C 	C 	1.05655 0.59292 1.09642 0.10200
C 	C 	1.03507 0.54585 0.93718 -0.04000
C 	C 	0.99292 0.54716 0.95375 0.46400
F 	F 	0.97955 0.46432 0.83880 -0.33800
F 	F 	0.98393 0.54296 1.15500 -0.34200
C 	C 	0.97241 0.64060 0.88838 0.34800
F 	F 	0.93614 0.64437 0.95776 -0.50900
F 	F 	0.98945 0.72338 0.97872 -0.45000
C 	C 	1.05403 0.49163 0.77049 0.06000
H 	H 	0.14312 0.53324 0.92126 0.10800
H 	H 	1.04299 0.63430 1.22878 0.07900
H 	H 	1.03863 0.45150 0.64847 0.12800
