data_crystal

_cell_length_a 35.47610
_cell_length_b 18.38150
_cell_length_c 9.62440
_cell_angle_alpha 86.61650
_cell_angle_beta  87.80620
_cell_angle_gamma 89.60620

_symmetry_space_group_name_	'P 1'
_symmetry_space_group_name_H-M	'P 1'

loop_
_symmetry_equiv_pos_as_xyz
  x,y,z

loop_
_atom_site_label
_atom_site_type_symbol
_atom_site_fract_x
_atom_site_fract_y
_atom_site_fract_z
_atom_site_charge
Eu	Eu	0.37870 0.74564 0.26875 2.11100
O 	O 	0.32766 0.90923 0.29500 -0.13400
C 	C 	0.35351 0.60252 0.16409 0.34400
O 	O 	0.45457 0.91620 0.12910 -0.14700
O 	O 	0.42178 0.83667 0.27186 -0.34900
O 	O 	0.44933 0.65337 0.30965 -0.29200
O 	O 	0.38535 0.61325 0.11498 -0.29700
O 	O 	0.33764 0.65192 0.25481 -0.44800
O 	O 	0.33894 0.80389 0.41947 -0.36900
C 	C 	0.34095 0.87956 0.39901 0.21000
O 	O 	0.40333 0.68814 0.46099 -0.42800
C 	C 	0.43491 0.64671 0.42701 0.34900
C 	C 	0.42723 0.87635 0.14444 0.22100
Eu	Eu	0.89211 0.71517 0.79167 1.82200
O 	O 	0.82611 0.81141 0.71122 -0.30400
C 	C 	0.84518 0.57989 0.75029 0.33600
O 	O 	0.90703 0.87556 0.84741 -0.24400
O 	O 	0.94442 0.77535 0.85322 -0.41900
O 	O 	0.98515 0.65285 0.73835 -0.15600
O 	O 	0.87395 0.55606 0.80224 -0.28900
O 	O 	0.84001 0.65479 0.73015 -0.44300
O 	O 	0.88426 0.79899 0.61044 -0.38100
C 	C 	0.84833 0.82980 0.61571 0.34600
O 	O 	0.92806 0.64811 0.64381 -0.36400
C 	C 	0.96548 0.67044 0.64042 0.19700
C 	C 	0.93897 0.85049 0.84369 0.34500
Eu	Eu	0.13645 0.27944 0.29403 2.14700
O 	O 	0.17261 0.17618 0.08927 -0.22500
C 	C 	0.18891 0.38869 0.12321 0.23200
O 	O 	0.04906 0.30148 0.09004 -0.10300
O 	O 	0.10590 0.24640 0.10126 -0.32900
O 	O 	0.06562 0.35914 0.34214 -0.22800
O 	O 	0.21562 0.41465 0.05381 -0.11400
O 	O 	0.18852 0.31388 0.15887 -0.33500
O 	O 	0.15870 0.16229 0.32131 -0.42700
C 	C 	0.17238 0.13637 0.19523 0.35200
O 	O 	0.08573 0.25314 0.44201 -0.40200
C 	C 	0.06278 0.31485 0.44156 0.34600
C 	C 	0.06675 0.24562 0.11804 0.23200
Eu	Eu	0.61131 0.26008 0.74763 2.20300
O 	O 	0.64570 0.16745 0.98798 -0.18000
C 	C 	0.66394 0.38700 0.78940 0.19800
O 	O 	0.55897 0.22848 0.99501 -0.20200
O 	O 	0.57779 0.15863 0.81992 -0.42900
O 	O 	0.50242 0.33038 0.62279 -0.10300
O 	O 	0.69684 0.40571 0.77402 -0.13900
O 	O 	0.64614 0.35990 0.67696 -0.37200
O 	O 	0.66643 0.19646 0.76703 -0.41400
C 	C 	0.67259 0.17462 0.90551 0.24800
O 	O 	0.55689 0.32675 0.73563 -0.35900
C 	C 	0.53543 0.31114 0.62294 0.19600
C 	C 	0.56098 0.16770 0.95076 0.34500
C 	C 	0.33235 0.53646 0.12478 -0.19400
C 	C 	0.29170 0.53567 0.18000 0.02200
C 	C 	0.26463 0.58795 0.13190 0.02900
C 	C 	0.27504 0.64537 0.01698 -0.17000
C 	C 	0.22731 0.58635 0.19289 0.05400
C 	C 	0.19931 0.64712 0.15830 -0.19800
C 	C 	0.21663 0.52857 0.29163 0.00000
C 	C 	0.17683 0.52148 0.35611 -0.15900
C 	C 	0.15465 0.45316 0.31974 0.47400
F 	F 	0.16647 0.39303 0.40037 -0.52400
F 	F 	0.11741 0.46599 0.35898 -0.39400
C 	C 	0.15590 0.43633 0.16325 0.30600
F 	F 	0.15664 0.50041 0.08042 -0.38000
F 	F 	0.12335 0.40008 0.13418 -0.45500
C 	C 	0.24408 0.47835 0.33754 0.23200
F 	F 	0.23557 0.42638 0.43969 -0.34500
C 	C 	0.28087 0.48186 0.28304 0.22300
F 	F 	0.30621 0.43199 0.33261 -0.34000
H 	H 	0.33297 0.53350 0.00978 0.12000
H 	H 	0.34817 0.48759 0.16389 0.18000
H 	H 	0.25474 0.64380 -0.06780 0.09800
H 	H 	0.30323 0.63818 -0.03307 0.09000
H 	H 	0.27460 0.70021 0.05962 0.08200
H 	H 	0.19055 0.67367 0.25513 0.09600
H 	H 	0.21041 0.69111 0.08526 0.09200
H 	H 	0.17416 0.62526 0.11067 0.14100
H 	H 	0.17870 0.52103 0.47124 0.16800
H 	H 	0.15917 0.56971 0.32926 0.13700
C 	C 	0.83694 0.88390 0.50165 -0.17800
C 	C 	0.81101 0.94211 0.55787 0.01100
C 	C 	0.77127 0.94088 0.54402 0.04200
C 	C 	0.75417 0.88236 0.46097 -0.17800
C 	C 	0.74827 -0.00575 0.60870 0.04000
C 	C 	0.70567 -0.01197 0.60708 -0.17700
C 	C 	0.76575 0.05131 0.67668 0.04000
C 	C 	0.74379 0.11431 0.73583 -0.17800
C 	C 	0.73296 0.09929 0.89189 0.48800
F 	F 	0.71061 0.03771 0.91073 -0.43100
F 	F 	0.76565 0.08619 0.96397 -0.34600
C 	C 	0.71213 0.16407 0.95570 0.35500
F 	F 	0.73212 0.22782 0.92487 -0.34500
F 	F 	0.71047 0.15165 1.09934 -0.32700
C 	C 	0.80512 0.05123 0.68717 0.23800
F 	F 	0.82242 0.10418 0.75382 -0.32100
C 	C 	0.82723 -0.00317 0.63121 0.22100
F 	F 	0.86506 0.99775 0.64808 -0.33900
H 	H 	0.82420 0.85378 0.41922 0.08600
H 	H 	0.86256 0.91001 0.45139 0.14000
H 	H 	0.72308 0.88395 0.45766 0.08200
H 	H 	0.76192 0.82746 0.50558 0.07900
H 	H 	0.76487 0.88878 0.35105 0.09700
H 	H 	0.68995 0.02573 0.67325 0.11200
H 	H 	0.69617 -0.00220 0.49903 0.09800
H 	H 	0.69704 -0.06727 0.64844 0.08800
H 	H 	0.76120 0.16454 0.72268 0.17800
H 	H 	0.71898 0.12752 0.67299 0.11400
C 	C 	0.18718 0.05982 0.18854 -0.17200
C 	C 	0.22068 0.04701 0.28095 0.00000
C 	C 	0.22085 -0.00712 0.39276 0.01900
C 	C 	0.18586 0.94669 0.42420 -0.17200
C 	C 	0.25361 0.98344 0.47412 0.04900
C 	C 	0.25471 0.92155 0.58504 -0.20200
C 	C 	0.28473 0.03181 0.44834 0.01400
C 	C 	0.31758 0.03548 0.54510 -0.19000
C 	C 	0.35577 1.00662 0.48609 0.49500
F 	F 	0.36169 1.03005 0.34781 -0.32100
F 	F 	0.38384 1.03807 0.55807 -0.37000
C 	C 	0.36077 0.92264 0.50382 0.35400
F 	F 	0.34892 0.89787 0.63666 -0.39500
F 	F 	0.39888 0.90713 0.49083 -0.37500
C 	C 	0.28346 0.08477 0.33714 0.24400
F 	F 	0.31181 0.13376 0.31307 -0.30200
C 	C 	0.25271 0.09042 0.25229 0.22700
F 	F 	0.25360 0.14122 0.14378 -0.34900
H 	H 	0.16331 0.02250 0.21468 0.09000
H 	H 	0.19644 0.04976 0.07956 0.12400
H 	H 	0.18751 0.90811 0.51623 0.08400
H 	H 	0.18033 0.91402 0.33378 0.08600
H 	H 	0.16128 0.98262 0.44565 0.09500
H 	H 	0.28229 0.91254 0.63097 0.13400
H 	H 	0.23392 0.93174 0.67087 0.09900
H 	H 	0.24828 0.86939 0.53864 0.09600
H 	H 	0.32139 0.09388 0.56564 0.18400
H 	H 	0.31110 1.01100 0.65096 0.14500
C 	C 	0.81566 0.52872 0.70746 -0.18100
C 	C 	0.77959 0.53601 0.79522 0.00100
C 	C 	0.74623 0.56941 0.74347 0.03600
C 	C 	0.74772 0.61740 0.60971 -0.17900
C 	C 	0.71135 0.55913 0.82129 0.02800
C 	C 	0.67449 0.58841 0.76497 -0.17700
C 	C 	0.71111 0.51992 0.95349 0.00900
C 	C 	0.67496 0.50057 1.03775 -0.17300
C 	C 	0.66551 0.41774 1.04854 0.48500
F 	F 	0.69780 0.37537 1.06092 -0.34800
F 	F 	0.64384 0.40468 0.17022 -0.38100
C 	C 	0.64251 0.39116 0.92760 0.34400
F 	F 	0.61128 0.43564 0.90829 -0.43800
F 	F 	0.62958 0.32195 0.96710 -0.49200
C 	C 	0.74555 0.49814 1.01034 0.23200
F 	F 	0.74662 0.46809 0.14252 -0.34000
C 	C 	0.77901 0.50418 0.93122 0.22100
F 	F 	0.81114 0.47663 0.98655 -0.37000
H 	H 	0.81135 0.53755 0.59437 0.09700
H 	H 	0.82608 0.47158 0.72058 0.14200
H 	H 	0.73289 0.66974 0.62627 0.07300
H 	H 	0.73436 0.58917 0.52555 0.09400
H 	H 	0.77665 0.63364 0.57445 0.08700
H 	H 	0.65377 0.54371 0.76217 0.09800
H 	H 	0.66299 0.63075 0.83276 0.07500
H 	H 	0.67689 0.61285 0.65734 0.07500
H 	H 	0.67851 0.51871 0.14464 0.14400
H 	H 	0.65018 0.53196 1.00093 0.10500
C 	C 	0.45022 0.59360 0.53611 -0.17500
C 	C 	0.47673 0.53732 0.47515 0.00100
C 	C 	0.51580 0.53360 0.50234 0.03500
C 	C 	0.53282 0.59229 0.58485 -0.17800
C 	C 	0.53826 0.47531 0.45117 0.03200
C 	C 	0.57893 0.46772 0.49353 -0.18500
C 	C 	0.52166 0.42445 0.36506 0.02000
C 	C 	0.54358 0.36317 0.29780 -0.19300
C 	C 	0.53498 0.28566 0.36362 0.50700
F 	F 	0.49648 0.27331 0.37289 -0.33700
F 	F 	0.55040 0.23654 0.27396 -0.36600
C 	C 	0.55215 0.26792 0.50703 0.32700
F 	F 	0.59070 0.27893 0.49507 -0.53300
F 	F 	0.54608 0.19490 0.54380 -0.39100
C 	C 	0.48343 0.43279 0.33343 0.23400
F 	F 	0.46724 0.38827 0.24525 -0.31500
C 	C 	0.46125 0.48676 0.39040 0.23500
F 	F 	0.42412 0.49049 0.36071 -0.36500
H 	H 	0.46298 0.62509 0.61668 0.09300
H 	H 	0.42605 0.56416 0.59006 0.13300
H 	H 	0.56394 0.59073 0.58730 0.07700
H 	H 	0.52158 0.58734 0.69420 0.09200
H 	H 	0.52560 0.64688 0.53729 0.08200
H 	H 	0.59252 0.41560 0.47065 0.11700
H 	H 	0.59610 0.51232 0.44107 0.09400
H 	H 	0.58026 0.47017 0.60825 0.10100
H 	H 	0.53597 0.36415 0.18661 0.18800
H 	H 	0.57434 0.37233 0.28974 0.16100
C 	C 	0.97239 0.89997 0.82123 -0.17800
C 	C 	0.97531 0.95128 0.93798 0.00800
C 	C 	0.99870 0.93606 1.05262 0.04100
C 	C 	0.01809 0.86225 1.06726 -0.21400
C 	C 	1.00339 -0.01010 0.15171 0.06700
C 	C 	0.03137 -0.02443 0.26559 -0.21400
C 	C 	0.98207 0.05609 0.14013 0.02300
C 	C 	0.98310 0.11503 0.24504 -0.15100
C 	C 	0.00396 0.18532 0.19011 0.47600
F 	F 	0.98793 0.21318 0.06909 -0.36200
F 	F 	0.99865 0.23602 0.28983 -0.42300
C 	C 	0.04688 0.17491 0.16224 0.35800
F 	F 	0.06305 0.14616 0.28195 -0.43900
F 	F 	0.05312 0.12708 0.05785 -0.39700
C 	C 	0.95684 0.06642 0.03135 0.25000
F 	F 	0.93384 0.12577 0.02340 -0.32100
C 	C 	0.95437 0.01610 0.93017 0.21700
F 	F 	0.93085 0.03055 0.82382 -0.33200
H 	H 	0.99843 0.86695 0.80855 0.12700
H 	H 	0.96985 0.93165 0.72003 0.15500
H 	H 	0.03019 0.85024 0.17011 0.13800
H 	H 	0.04124 0.85895 0.98695 0.10800
H 	H 	-0.00264 0.81830 0.05500 0.11900
H 	H 	0.03893 0.02370 0.32072 0.13800
H 	H 	0.01987 0.93384 0.34370 0.13000
H 	H 	0.05857 -0.04379 0.21994 0.11200
H 	H 	0.95346 0.13025 0.27255 0.16600
H 	H 	0.99395 0.09552 0.34680 0.12600
C 	C 	0.54721 0.10271 0.03946 -0.17100
C 	C 	0.51236 0.07088 -0.01952 0.02300
C 	C 	0.51371 0.00921 0.89807 0.01800
C 	C 	0.55179 0.97425 0.86590 -0.15900
C 	C 	0.47949 0.98113 0.84848 0.06900
C 	C 	0.48190 0.91694 0.75608 -0.19800
C 	C 	0.44424 0.01371 -0.11142 0.02300
C 	C 	0.40577 0.98535 -0.14740 -0.16700
C 	C 	0.38349 0.94469 -0.02520 0.48900
F 	F 	0.37881 0.98928 0.08505 -0.34300
F 	F 	0.34780 0.93223 -0.07225 -0.36300
C 	C 	0.40052 0.87014 0.02644 0.36400
F 	F 	0.41923 0.83708 0.91835 -0.43700
F 	F 	0.37098 0.82514 0.07188 -0.57200
C 	C 	0.44436 0.07650 -0.03476 0.25200
F 	F 	0.41165 0.11174 -0.00286 -0.29900
C 	C 	0.47769 0.10441 0.01012 0.23300
F 	F 	0.47601 0.16439 0.08617 -0.31100
H 	H 	0.57062 0.06286 1.04981 0.09700
H 	H 	0.54049 0.11836 0.14747 0.18000
H 	H 	0.55119 0.92910 0.79529 0.07700
H 	H 	0.56387 0.95136 0.96389 0.08300
H 	H 	0.57132 0.01554 0.81546 0.09500
H 	H 	0.45523 0.89845 0.71647 0.15100
H 	H 	0.49992 0.93170 0.66188 0.11200
H 	H 	0.49424 0.86919 0.81449 0.10500
H 	H 	0.38842 0.03312 -0.18211 0.20100
H 	H 	0.40633 0.95208 0.76140 0.18000
C 	C 	0.03597 0.32884 0.56325 -0.16900
C 	C 	0.02416 0.40879 0.55699 0.00800
C 	C 	-0.01098 0.43340 0.50565 0.04200
C 	C 	0.95789 0.37830 0.49251 -0.20200
C 	C 	0.98432 0.50859 0.46258 0.04800
C 	C 	0.94665 0.53508 0.40956 -0.19500
C 	C 	0.01567 0.55676 0.46511 0.00700
C 	C 	0.01805 0.62888 0.37835 -0.18400
C 	C 	1.01883 0.69859 0.46099 0.49200
F 	F 	0.04459 0.69199 0.56542 -0.37700
F 	F 	1.03126 0.75476 0.36890 -0.40600
C 	C 	0.98023 0.72168 0.52330 0.35500
F 	F 	0.95422 0.72831 0.41958 -0.42100
F 	F 	0.98414 0.78965 0.57549 -0.38700
C 	C 	0.04856 0.53177 0.53010 0.25000
F 	F 	0.07945 0.57488 0.53132 -0.33100
C 	C 	0.05213 0.45974 0.57950 0.23700
F 	F 	0.08539 0.43743 0.63362 -0.35000
H 	H 	0.01196 0.29065 0.56322 0.12400
H 	H 	0.05053 0.31582 0.66184 0.14200
H 	H 	0.93079 0.40178 0.45844 0.11000
H 	H 	0.95204 0.34871 0.59495 0.12500
H 	H 	0.96681 0.33894 0.41472 0.15000
H 	H 	0.94464 0.59468 0.39110 0.11400
H 	H 	0.94086 0.50955 0.31086 0.10000
H 	H 	0.92394 0.52088 0.48891 0.10000
H 	H 	0.04479 0.62735 0.31424 0.16200
H 	H 	0.99638 0.63423 0.29855 0.11800
