data_crystal

_cell_length_a 28.23160
_cell_length_b 13.72700
_cell_length_c 18.24740
_cell_angle_alpha 35.90480
_cell_angle_beta  85.75950
_cell_angle_gamma 105.40230

_symmetry_space_group_name_	'P 1'
_symmetry_space_group_name_H-M	'P 1'

loop_
_symmetry_equiv_pos_as_xyz
  x,y,z

loop_
_atom_site_label
_atom_site_type_symbol
_atom_site_fract_x
_atom_site_fract_y
_atom_site_fract_z
_atom_site_charge
Eu	Eu	0.66094 -0.06050 0.79024 1.76900
O 	O 	0.82379 0.42906 0.39776 -0.07600
C 	C 	0.57134 -0.10817 0.70902 0.12600
O 	O 	0.63085 0.45186 1.00642 -0.06800
O 	O 	0.66641 0.78619 0.78066 -0.22200
O 	O 	0.65552 1.10666 0.79506 -0.39000
O 	O 	0.60713 -0.09109 0.65212 -0.13200
O 	O 	0.58637 -0.04765 0.74373 -0.31900
O 	O 	0.72876 0.24184 0.54972 -0.30900
C 	C 	0.78541 0.29545 0.52076 0.22900
O 	O 	0.66292 0.11337 0.78686 0.20100
C 	C 	0.60961 0.06723 0.84612 0.15200
C 	C 	0.67236 0.62289 0.88840 0.24100
Eu	Eu	0.08663 0.28249 0.58304 1.65900
O 	O 	0.95495 0.00554 0.75725 -0.30900
C 	C 	0.08385 0.49652 0.60589 0.28600
O 	O 	0.17353 0.27748 0.60015 -0.17200
O 	O 	0.16904 0.28645 0.60313 -0.09600
O 	O 	0.13567 0.50271 0.31233 -0.18100
O 	O 	0.13589 0.60397 0.54114 -0.12600
O 	O 	0.05921 0.31459 0.68242 -0.36200
O 	O 	1.01708 0.32114 0.52159 -0.32100
C 	C 	0.96461 0.13847 0.63370 0.31100
O 	O 	0.08943 0.16691 0.54131 -0.42200
C 	C 	0.12609 0.34371 0.38926 0.23700
C 	C 	0.18945 0.22899 0.57522 0.13700
Eu	Eu	0.33232 0.06283 0.21118 1.78700
O 	O 	0.26904 -0.03569 0.41859 -0.18300
C 	C 	0.37577 -0.09964 0.44844 0.31000
O 	O 	0.20874 0.99228 0.24717 -0.13200
O 	O 	0.29551 1.19831 0.05892 -0.22500
O 	O 	0.39608 0.95142 0.20051 -0.00200
O 	O 	0.33884 -0.12304 0.50854 -0.11900
O 	O 	0.37631 -0.05700 0.34729 -0.35300
O 	O 	0.34227 0.27820 0.16602 -0.28800
C 	C 	0.29713 0.15266 0.29997 0.20800
O 	O 	0.41691 0.26189 0.01852 -0.25500
C 	C 	0.42441 0.12224 0.07014 -0.01100
C 	C 	0.24186 1.14653 0.11637 0.25200
Eu	Eu	0.01427 0.78891 -0.07618 1.61100
O 	O 	0.90170 0.63285 0.93519 -0.07800
C 	C 	-0.01084 0.61053 0.86079 0.28700
O 	O 	0.03677 0.93748 -0.04981 -0.15000
O 	O 	0.03210 0.94570 -0.05977 -0.15300
O 	O 	0.07172 0.55022 0.20376 -0.12700
O 	O 	-0.01443 0.74266 0.75614 -0.13800
O 	O 	0.01212 0.62130 0.92106 -0.25900
O 	O 	0.91701 0.60035 1.07270 -0.20000
C 	C 	0.88174 0.57415 1.03401 0.26400
O 	O 	0.00571 0.54732 0.14345 -0.29900
C 	C 	0.05962 0.58386 0.12530 0.20700
C 	C 	0.07003 0.92554 -0.00786 0.18400
C 	C 	0.59979 -0.13060 1.15257 0.06700
C 	C 	0.55197 -0.16734 0.21091 0.18900
F 	F 	0.51600 -0.35020 0.35675 -0.36200
C 	C 	0.54117 -0.00880 0.12727 0.25700
F 	F 	0.51752 -0.01631 0.20003 -0.33600
C 	C 	0.54515 0.11686 0.99739 -0.00900
C 	C 	0.52542 0.25798 0.92899 0.36300
F 	F 	0.55802 1.43194 0.77902 -0.17000
F 	F 	0.53497 0.31342 0.96713 -0.29800
C 	C 	0.46113 1.16135 -0.02356 0.56600
F 	F 	0.43873 0.97538 0.06116 -0.34100
F 	F 	0.45334 1.27146 -0.14057 -0.30800
C 	C 	0.55445 0.08206 0.94064 0.27900
F 	F 	0.50794 -0.04920 0.98443 -0.35800
C 	C 	0.60572 0.15085 0.86513 0.20100
F 	F 	0.65284 0.24951 0.84297 -0.32400
H 	H 	0.60752 -0.24743 1.21847 0.11800
C 	C 	0.03552 0.08615 0.40720 -0.16400
C 	C 	1.06634 0.13971 0.30986 0.38700
F 	F 	1.04400 0.02106 0.32435 -0.32800
C 	C 	0.12170 0.33358 0.17965 0.28100
F 	F 	1.13827 0.41144 0.06201 -0.25500
C 	C 	0.14379 0.46385 0.15401 -0.15500
C 	C 	0.15771 0.67778 0.01010 0.53400
F 	F 	0.19635 0.75897 -0.10111 -0.30000
F 	F 	0.18021 0.78418 0.00747 -0.33500
C 	C 	0.09880 0.64723 0.01759 0.31700
F 	F 	0.10965 0.82707 -0.12009 -0.51900
F 	F 	0.06559 0.48761 0.06872 -0.39300
C 	C 	0.18096 0.43748 0.21272 0.36400
F 	F 	0.23767 0.54626 0.12232 -0.25800
C 	C 	0.16441 0.33990 0.33687 0.15100
F 	F 	0.17785 0.20870 0.43193 -0.36000
H 	H 	0.99465 -0.05489 0.49892 0.19300
C 	C 	0.45742 -0.38487 0.59539 -0.09400
C 	C 	0.50666 0.77800 0.51176 0.39800
F 	F 	0.54989 0.86984 0.40179 -0.24900
C 	C 	0.51858 0.85352 0.54065 0.43600
F 	F 	0.57220 0.92550 0.51498 -0.30800
C 	C 	0.48290 -0.12792 0.57718 -0.21800
C 	C 	0.49954 -0.06461 0.61758 0.36200
F 	F 	0.45578 0.93862 0.65403 -0.18600
F 	F 	0.54745 0.13101 0.49474 -0.39000
C 	C 	0.50979 0.79452 0.74960 0.55400
F 	F 	0.49473 0.62487 0.81574 -0.34200
F 	F 	0.47540 0.73323 0.85274 -0.28800
C 	C 	0.42960 -0.15192 0.56831 0.34700
F 	F 	0.38136 -0.25658 0.67900 -0.35800
C 	C 	0.42728 -0.08041 0.45941 0.10900
F 	F 	0.47636 0.04683 0.33755 -0.35500
H 	H 	0.42148 -0.47416 0.69116 0.11400
C 	C 	0.12978 0.73425 0.75165 0.10500
C 	C 	0.08704 0.55402 0.84388 0.22100
F 	F 	0.06896 0.38934 0.98837 -0.29100
C 	C 	0.07023 0.52133 0.78830 0.38200
F 	F 	0.11494 0.62347 0.67509 -0.34800
C 	C 	0.01590 0.43701 0.82227 -0.23500
C 	C 	0.99993 0.41016 0.75857 0.59100
F 	F 	0.95336 0.42513 0.74890 -0.30500
F 	F 	0.98016 0.21456 0.86107 -0.37500
C 	C 	0.04552 0.55944 0.60411 0.31400
F 	F 	0.07962 0.75306 0.50982 -0.28500
F 	F 	1.01573 0.57339 0.54186 -0.26800
C 	C 	0.96661 0.32581 0.94831 0.44100
F 	F 	0.92492 0.13007 1.05458 -0.32800
C 	C 	-0.04698 0.40395 0.95837 0.10300
F 	F 	0.90352 0.27201 1.08098 -0.24700
H 	H 	0.14898 0.75936 0.78804 0.20300
C 	C 	0.67188 0.34843 1.28489 0.04200
C 	C 	0.68274 0.25335 1.29185 0.29200
F 	F 	0.68058 0.08424 1.41279 -0.27400
C 	C 	0.69337 0.32435 1.17126 0.34400
F 	F 	0.65553 0.20240 1.19800 -0.31900
C 	C 	0.74312 0.49266 1.04249 -0.12900
C 	C 	0.79507 0.59834 1.02373 0.50300
F 	F 	0.78025 0.64765 1.06012 -0.32300
F 	F 	0.83591 0.77753 0.87974 -0.30300
C 	C 	0.81814 0.46452 1.11944 0.44100
F 	F 	0.79238 0.29634 0.18026 -0.38600
F 	F 	-0.19519 0.39749 1.23379 -0.32700
C 	C 	0.75155 0.56799 0.91878 0.38900
F 	F 	0.79390 0.57331 0.87267 -0.26800
C 	C 	0.73160 0.67737 0.83002 0.21700
F 	F 	0.75937 0.81103 0.69056 -0.22200
H 	H 	0.66227 0.29354 1.37521 0.17700
C 	C 	0.39324 0.58467 0.29811 0.11300
C 	C 	0.34223 0.56395 0.32315 0.28200
F 	F 	0.33235 0.62462 0.34950 -0.36500
C 	C 	0.29937 0.47934 0.32006 0.30400
F 	F 	0.29919 0.60954 0.19421 -0.28900
C 	C 	0.28378 0.30107 0.40625 -0.10600
C 	C 	0.31798 0.31580 0.32280 0.51000
F 	F 	0.33947 0.20229 0.39251 -0.37500
F 	F 	0.36657 0.50949 0.19017 -0.32700
C 	C 	0.28501 0.26954 0.28318 0.38500
F 	F 	0.30182 0.45683 0.13298 -0.25400
F 	F 	0.22906 0.15514 0.37747 -0.35500
C 	C 	0.25946 0.14938 0.56310 0.30500
F 	F 	0.28138 0.03796 0.63612 -0.29900
C 	C 	0.23026 0.16282 0.61713 0.20700
F 	F 	0.23521 0.10105 0.72103 -0.27800
H 	H 	0.40037 0.50624 0.30142 0.15500
C 	C 	0.97956 0.89316 0.16234 0.06000
C 	C 	0.96215 0.71814 0.30316 0.25100
F 	F 	0.97224 0.72535 0.37073 -0.26600
C 	C 	0.95062 0.54486 0.36507 0.36200
F 	F 	0.98829 0.58166 0.28478 -0.41100
C 	C 	0.90572 0.35324 0.49635 -0.17400
C 	C 	0.85803 0.28246 0.60260 0.51500
F 	F 	0.86034 0.15016 0.72910 -0.32700
F 	F 	0.86593 0.43749 0.55013 -0.32800
C 	C 	0.79657 0.17110 0.64629 0.35000
F 	F 	0.75871 0.10613 0.74832 -0.46500
F 	F 	0.78518 0.00442 0.71211 -0.43000
C 	C 	0.90065 0.20894 0.53054 0.40000
F 	F 	0.87023 0.18230 0.48887 -0.33900
C 	C 	0.92332 0.10098 0.60265 0.14000
F 	F 	0.89855 -0.07396 0.67472 -0.31900
H 	H 	0.99215 1.02137 0.11652 0.20300
C 	C 	0.08284 0.76292 0.28284 -0.01200
C 	C 	0.13269 0.80139 0.22852 0.25800
F 	F 	0.14550 0.66788 0.32713 -0.49300
C 	C 	0.18051 1.00149 0.07386 0.32100
F 	F 	0.23242 1.02839 0.04684 -0.33800
C 	C 	0.17742 1.16138 -0.02159 -0.15500
C 	C 	0.22425 1.34807 -0.09920 0.53100
F 	F 	0.21203 1.49276 -0.18659 -0.27300
F 	F 	0.27580 1.42597 -0.18919 -0.29400
C 	C 	0.23099 1.30526 0.00858 0.37600
F 	F 	0.18344 1.26093 0.08075 -0.26500
F 	F 	0.28026 1.46935 -0.06732 -0.21300
C 	C 	0.13249 1.15958 -0.06050 0.36700
F 	F 	0.09618 1.19669 -0.04556 -0.37700
C 	C 	0.12510 1.10651 -0.09856 0.08200
F 	F 	0.17088 1.12622 0.85004 -0.22800
H 	H 	0.07796 0.88931 0.21108 0.13900
