data_crystal

_cell_length_a 15.42160
_cell_length_b 15.99210
_cell_length_c 17.21310
_cell_angle_alpha 59.54710
_cell_angle_beta  145.61770
_cell_angle_gamma 118.80790

_symmetry_space_group_name_	'P 1'
_symmetry_space_group_name_H-M	'P 1'

loop_
_symmetry_equiv_pos_as_xyz
  x,y,z

loop_
_atom_site_label
_atom_site_type_symbol
_atom_site_fract_x
_atom_site_fract_y
_atom_site_fract_z
_atom_site_charge
Ce	Ce	-0.18187 0.04139 0.75184 2.14300
Ce	Ce	0.65687 0.86791 -0.11470 2.12200
C 	C 	-0.12369 0.18938 0.61957 0.34200
C 	C 	0.43188 0.66849 -0.09975 0.36700
H 	H 	0.28273 0.23643 0.03727 0.19100
C 	C 	0.56891 0.98659 -0.10896 0.30300
C 	C 	0.93888 0.87058 1.00626 0.17400
O 	O 	0.80234 0.73776 1.04111 -0.35600
O 	O 	0.78195 0.78393 0.11582 -0.43000
O 	O 	0.19783 0.18537 0.99181 -0.41700
O 	O 	0.08738 0.04353 0.92791 -0.39300
O 	O 	-0.01160 -0.03137 0.83627 -0.40000
O 	O 	0.77207 -0.11396 0.72728 -0.49300
O 	O 	-0.28268 0.13699 0.72286 -0.51500
O 	O 	0.83700 0.01695 -0.08760 -0.37700
H 	H 	0.27631 0.55530 0.86452 0.17400
O 	O 	-0.07549 0.19520 -0.27826 -0.44900
O 	O 	-0.22292 0.11591 0.56928 -0.50700
O 	O 	0.32525 0.59781 -0.15967 -0.38400
O 	O 	0.47820 0.72806 -0.15050 -0.50500
O 	O 	0.48333 0.96506 -0.22121 -0.48800
O 	O 	-0.30165 0.95547 -0.00849 -0.44900
O 	O 	0.84055 0.79836 -0.02370 -0.37000
O 	O 	-0.11760 0.95509 0.95329 -0.43500
C 	C 	0.83194 0.71953 0.14108 0.30600
C 	C 	0.20667 0.10602 0.99851 0.37100
C 	C 	-0.09552 -0.10733 0.78951 0.29100
C 	C 	-0.21662 0.10969 -0.15765 0.16700
C 	C 	0.85135 0.61313 0.22613 -0.18700
C 	C 	0.69456 0.54775 1.11994 -0.04700
C 	C 	0.66601 0.44693 1.10992 0.02100
C 	C 	0.76046 0.41769 0.13450 -0.05500
C 	C 	0.69421 0.36612 1.04453 -0.04300
C 	C 	0.53111 0.35817 0.91518 0.02600
C 	C 	0.46163 0.34660 0.78821 -0.08500
C 	C 	0.32671 0.26313 0.71551 -0.08200
C 	C 	0.18271 0.26894 0.65444 0.01400
C 	C 	0.04507 0.29550 0.51176 -0.07100
C 	C 	-0.07445 0.27715 0.48474 0.02500
C 	C 	-0.02630 0.23655 0.60681 -0.10800
S 	S 	0.16478 0.21779 -0.24471 0.03400
C 	C 	0.44029 0.38716 0.89505 -0.04600
C 	C 	0.50530 0.41501 1.00123 -0.04600
H 	H 	0.87578 0.60616 0.31051 0.07600
H 	H 	0.94786 0.58936 0.27510 0.07100
H 	H 	0.62027 0.54419 1.11827 0.04400
H 	H 	0.64167 0.58947 1.01507 0.05500
H 	H 	0.88352 0.44105 0.21635 0.03800
H 	H 	0.77075 0.34438 0.06660 0.03100
H 	H 	0.42979 0.41899 0.71535 0.04400
H 	H 	0.55279 0.33451 0.81904 0.04400
H 	H 	0.36702 0.19121 -0.20935 0.05300
H 	H 	0.29507 0.26271 0.62948 0.04200
H 	H 	0.03141 0.31932 0.43134 0.04000
H 	H 	-0.19456 0.28702 0.37924 0.01900
H 	H 	0.32058 0.39659 0.79292 0.04900
H 	H 	0.42881 0.43456 0.98051 0.04400
C 	C 	1.10710 0.86656 1.11150 -0.12800
C 	C 	1.18405 0.78241 0.24174 -0.05900
C 	C 	1.16255 0.69219 0.21678 0.01500
C 	C 	1.02561 0.62604 1.14880 -0.03700
C 	C 	1.00644 0.54389 1.12580 -0.04200
C 	C 	1.12463 0.52285 0.17387 0.01900
C 	C 	1.10846 0.42721 0.16263 -0.09400
C 	C 	0.97798 0.42183 1.00888 -0.06500
C 	C 	0.97152 0.33204 -0.00351 0.00500
C 	C 	1.03601 0.33539 -0.03012 -0.04600
C 	C 	0.97405 0.25788 -0.08364 -0.01700
C 	C 	0.87700 0.18926 -0.08218 -0.03900
S 	S 	0.84665 0.22718 0.97027 0.00300
C 	C 	1.25817 0.59047 0.23469 -0.05300
C 	C 	1.27890 0.67441 0.25838 -0.05300
H 	H 	0.16773 0.93608 1.14672 0.05500
H 	H 	1.12602 0.86685 1.06190 0.08100
H 	H 	1.30979 0.80932 0.32168 0.02100
H 	H 	1.16029 0.76578 0.29402 0.03200
H 	H 	0.93631 0.63316 1.11998 0.06900
H 	H 	0.90032 0.49543 1.07229 0.03900
H 	H 	1.21988 0.41885 0.21940 0.04700
H 	H 	1.08874 0.36540 0.21916 0.04600
H 	H 	1.00722 0.48658 0.96220 0.04900
H 	H 	0.86679 0.42600 0.95359 0.04200
H 	H 	1.11047 0.39677 -0.02807 0.03800
H 	H 	0.98945 0.25622 -0.13299 0.05900
H 	H 	1.34508 0.57949 0.26087 0.03300
H 	H 	1.37533 0.72928 0.29530 0.03000
C 	C 	0.36002 1.08100 0.09218 -0.21700
C 	C 	0.51081 0.14149 0.20602 -0.02100
C 	C 	0.64880 1.09334 0.30454 0.00600
C 	C 	0.66261 1.00110 0.38715 -0.02800
C 	C 	0.75168 0.94090 0.44156 -0.05500
C 	C 	0.82882 0.97023 0.41418 0.02400
C 	C 	0.86892 0.89057 0.42006 -0.11500
C 	C 	0.80726 0.82681 0.32472 -0.08000
C 	C 	0.66064 0.76388 0.20723 0.05500
C 	C 	0.56674 0.81433 0.07659 -0.13500
C 	C 	0.44471 -0.22491 -0.03674 0.05400
C 	C 	0.47979 -0.31077 0.00771 -0.13200
S 	S 	0.62493 0.64809 0.19400 -0.00200
C 	C 	0.85901 0.07302 0.37836 -0.03800
C 	C 	0.75418 0.13198 0.30628 -0.02900
H 	H 	0.35823 1.08722 0.02361 0.08500
H 	H 	0.36321 1.00260 0.14576 0.07900
H 	H 	0.51962 0.21810 0.15486 0.03300
H 	H 	0.50603 1.14220 0.26701 0.02800
H 	H 	0.59563 0.97190 0.40074 0.02600
H 	H 	0.73005 0.86605 0.47724 0.03700
H 	H 	0.99656 -0.09053 0.49710 0.05800
H 	H 	0.85663 0.83737 0.47734 0.06700
H 	H 	0.89270 0.77329 0.41017 0.04400
H 	H 	0.85627 0.87686 0.29064 0.05200
H 	H 	0.61960 -0.11844 0.07456 0.09900
H 	H 	0.37318 -0.18211 -0.14348 0.00700
H 	H 	0.93745 0.10392 0.37690 0.04000
H 	H 	0.74906 0.20403 0.24575 0.04000
C 	C 	0.95713 -0.16993 0.79426 -0.16300
C 	C 	0.96621 0.72085 0.86707 -0.05500
C 	C 	0.91787 0.66496 0.78379 0.01800
C 	C 	0.76615 0.61654 0.69079 -0.04400
C 	C 	0.67746 0.62417 0.55412 -0.04900
C 	C 	0.74133 0.68291 0.51038 0.01300
C 	C 	0.62318 0.74426 0.34472 -0.08900
C 	C 	0.53524 -0.15104 0.20638 -0.06800
C 	C 	0.54184 -0.05274 0.10461 0.02200
C 	C 	0.66897 1.01413 0.13752 -0.06500
C 	C 	0.64243 1.06970 0.02826 -0.01400
C 	C 	0.51901 0.02892 -0.08640 -0.06700
S 	S 	0.38977 -0.03526 -0.08242 -0.00800
C 	C 	0.90620 0.68825 0.62408 -0.04500
C 	C 	0.99506 0.68774 0.75930 -0.04900
H 	H 	0.07150 0.86353 0.84034 0.07200
H 	H 	0.87867 -0.16450 0.68587 0.07700
H 	H 	1.08717 0.71124 0.97529 0.04600
H 	H 	0.89403 0.69438 0.87679 0.05000
H 	H 	0.70123 -0.40574 0.70606 0.03500
H 	H 	0.55569 -0.40150 0.47967 0.03800
H 	H 	0.54605 0.68291 0.28865 0.04600
H 	H 	0.57894 0.75718 0.36379 0.04400
H 	H 	0.49798 -0.11771 0.21756 0.04100
H 	H 	0.41699 -0.18791 0.11808 0.04000
H 	H 	0.78907 1.01317 0.22981 0.04900
H 	H 	0.74605 1.10572 0.06017 0.03000
H 	H 	0.96944 0.71317 0.60832 0.03900
H 	H 	1.11504 0.71965 0.83255 0.04100
