data_crystal

_cell_length_a 26.10340
_cell_length_b 22.34940
_cell_length_c 8.86940
_cell_angle_alpha 90.92460
_cell_angle_beta  71.35830
_cell_angle_gamma 130.02020

_symmetry_space_group_name_	'P 1'
_symmetry_space_group_name_H-M	'P 1'

loop_
_symmetry_equiv_pos_as_xyz
  x,y,z

loop_
_atom_site_label
_atom_site_type_symbol
_atom_site_fract_x
_atom_site_fract_y
_atom_site_fract_z
_atom_site_charge
Ce	Ce	0.97619 0.03777 0.43172 2.11000
Ce	Ce	0.10932 0.06345 -0.00295 2.12200
C 	C 	0.97969 0.14948 0.57690 0.23300
C 	C 	0.23173 0.16469 0.13862 0.40300
H 	H 	0.72727 0.92122 0.73261 0.17800
C 	C 	0.07479 0.06076 0.73666 0.09000
C 	C 	0.96100 0.92832 0.14089 0.15500
O 	O 	0.10850 0.97339 0.11792 -0.41400
O 	O 	0.18371 1.04135 0.86376 -0.35200
O 	O 	0.78109 0.96009 0.67102 -0.32900
O 	O 	0.87528 1.01487 0.43865 -0.42200
O 	O 	0.98378 0.04263 0.67978 -0.44500
O 	O 	0.07006 0.06343 0.47013 -0.51500
O 	O 	0.05583 0.16992 0.26953 -0.29600
O 	O 	0.02420 0.07534 0.14195 -0.51100
H 	H 	0.27904 0.12001 0.09601 0.16900
O 	O 	1.01804 0.16595 0.42632 -0.35300
O 	O 	0.95218 0.08251 0.66229 -0.36700
O 	O 	0.24293 0.11947 0.08421 -0.49800
O 	O 	0.18569 0.16248 0.10991 -0.55100
O 	O 	0.11770 0.12571 0.77509 -0.39900
O 	O 	1.05250 0.99764 0.82322 -0.25200
O 	O 	0.00561 0.93549 0.02068 -0.32200
O 	O 	0.99115 1.00450 0.17455 -0.36500
C 	C 	0.15467 0.98407 -0.01477 0.29800
C 	C 	0.81369 0.99171 0.51523 0.31900
C 	C 	0.04273 0.05577 0.62487 0.27000
C 	C 	0.06010 0.15650 0.13412 0.16100
C 	C 	0.16875 0.92967 -0.03577 -0.12200
C 	C 	0.18190 0.91217 0.81136 0.08700
C 	C 	0.18784 0.85456 0.79266 -0.07300
C 	C 	0.18238 0.81447 -0.07322 0.12200
O 	O 	0.18569 0.75396 -0.07892 -0.19900
C 	C 	0.19898 0.73405 -0.23267 -0.00800
C 	C 	0.21336 0.67938 -0.21383 -0.03600
C 	C 	0.15427 0.59444 -0.14965 0.06400
C 	C 	0.07653 0.55749 -0.10457 -0.19200
C 	C 	0.16842 0.54503 -0.12190 -0.06000
C 	C 	0.11318 0.45454 -0.10756 0.06100
O 	O 	0.14830 0.43137 -0.20436 -0.23500
C 	C 	0.12795 0.35904 -0.15631 0.18200
C 	C 	0.18124 0.35729 -0.16141 -0.10400
C 	C 	0.16048 0.28654 -0.08233 -0.01700
C 	C 	0.08625 0.21619 -0.00649 -0.08500
C 	C 	0.03424 0.21452 -0.02613 0.09700
C 	C 	0.05474 0.28651 -0.09598 -0.13700
C 	C 	0.23521 0.58151 -0.10957 0.07500
C 	C 	0.24259 0.53066 -0.02371 -0.18800
C 	C 	0.29487 0.66644 -0.17449 -0.04900
C 	C 	0.36819 0.70756 -0.16887 0.04200
O 	O 	0.38546 0.76722 -0.07864 -0.20700
C 	C 	0.44927 0.80840 -0.04855 0.11000
C 	C 	0.50472 0.80694 0.86870 -0.05700
C 	C 	0.55996 0.83857 0.92323 0.03800
C 	C 	0.56313 0.87541 0.05419 -0.04500
C 	C 	0.60949 0.88981 0.13704 0.03900
C 	C 	0.61132 0.82978 0.16908 -0.00200
N 	N 	0.64981 0.83948 0.25429 -0.11000
C 	C 	0.68682 0.90625 0.30931 0.07600
N 	N 	0.72689 0.91628 0.38971 -0.14200
C 	C 	0.77414 0.98740 1.42266 0.18000
C 	C 	0.78069 0.05263 1.37619 -0.22300
N 	N 	0.73661 1.04115 1.30471 0.00700
C 	C 	0.69188 0.97055 1.26434 0.14300
N 	N 	0.64971 0.95902 1.18648 -0.07400
C 	C 	0.51418 0.88626 0.12064 0.00700
C 	C 	0.45832 0.85410 0.06661 -0.08300
C 	C 	0.28520 0.71423 -0.24051 0.02700
C 	C 	0.34986 0.80379 0.67198 -0.08900
C 	C 	0.17093 0.83392 0.07743 -0.10400
C 	C 	0.16315 0.89015 0.09741 0.05500
H 	H 	0.18461 0.94052 0.70766 0.05000
H 	H 	0.19404 0.83998 0.67568 0.06900
H 	H 	0.15188 0.70457 0.73193 0.06700
H 	H 	0.24598 0.78964 -0.33391 0.02000
H 	H 	0.06680 0.59357 -0.03708 0.08100
H 	H 	0.06603 0.55477 -0.21743 0.06500
H 	H 	0.03532 0.49629 -0.01857 0.07600
H 	H 	0.07039 0.43751 -0.14906 0.02500
H 	H 	0.08418 0.42038 0.02445 0.03200
H 	H 	0.23848 0.41247 -0.21560 0.05400
H 	H 	0.20131 0.28821 0.93095 0.06300
H 	H 	0.97639 0.16048 0.03371 -0.02600
H 	H 	0.01334 0.28670 -0.09647 0.08000
H 	H 	0.26041 0.55610 0.07637 0.07900
H 	H 	0.19056 0.46709 0.03865 0.08700
H 	H 	0.28348 0.53060 -0.11441 0.06700
H 	H 	0.36927 0.66512 -0.11072 0.01700
H 	H 	0.41021 0.73485 -0.29772 0.00700
H 	H 	0.50201 0.77543 0.77465 0.06300
H 	H 	0.59922 0.83249 0.86669 0.03300
H 	H 	0.57795 0.77282 0.13766 0.03000
H 	H 	0.81126 0.10602 1.41994 0.09200
H 	H 	0.51714 0.91561 0.21970 0.05100
H 	H 	0.41719 0.85712 0.12844 0.07300
H 	H 	0.34628 0.84156 -0.24962 0.05200
H 	H 	0.40440 0.82391 0.63917 0.08100
H 	H 	0.34894 0.81736 0.55307 0.06600
H 	H 	0.16644 0.80398 0.18191 0.07800
H 	H 	0.15326 0.90310 0.21645 0.05000
C 	C 	0.27317 0.21881 0.23248 -0.16500
C 	C 	0.27545 0.18579 0.36007 0.06500
C 	C 	0.32466 0.23588 0.43217 -0.14500
C 	C 	0.37684 0.32053 0.36698 0.17200
O 	O 	0.43483 0.37504 0.41631 -0.22900
C 	C 	0.45725 0.34715 0.50114 0.05700
C 	C 	0.54062 0.40473 0.43485 -0.08400
C 	C 	0.58624 0.48336 0.33298 0.10800
C 	C 	0.56231 0.53051 0.36314 -0.20300
C 	C 	0.65660 0.52025 0.21350 -0.12900
C 	C 	0.69333 0.59104 1.07214 0.16200
O 	O 	0.70587 0.65558 0.12786 -0.28400
C 	C 	0.76069 0.71232 0.17442 0.19800
C 	C 	0.81617 0.71417 0.16922 -0.14300
C 	C 	0.87688 0.78060 0.19509 0.04400
C 	C 	0.88482 0.84814 0.21999 -0.10600
C 	C 	0.82509 0.84096 0.24585 0.04300
C 	C 	0.76251 0.77222 0.22860 -0.13400
C 	C 	0.68701 0.48603 0.22362 0.07700
C 	C 	0.76092 0.51985 0.09599 -0.18900
C 	C 	0.64836 0.41982 0.36138 -0.07400
C 	C 	0.68819 0.39955 0.40861 0.05200
O 	O 	0.65090 0.31538 0.43136 -0.23200
C 	C 	0.69057 0.29854 0.46151 0.14500
C 	C 	0.69844 0.30156 0.61168 -0.11100
C 	C 	0.74559 0.29459 0.63188 -0.00300
C 	C 	0.78593 0.28544 0.50170 -0.03000
C 	C 	0.84060 0.28536 0.51680 0.04500
C 	C 	0.90972 0.33079 0.38580 -0.00900
N 	N 	0.95576 0.32096 0.38835 -0.11900
C 	C 	0.93704 0.27018 0.51853 0.07900
N 	N 	0.97735 0.25104 0.51042 -0.10100
C 	C 	0.95571 0.19338 0.63112 -0.01900
C 	C 	0.89229 0.15728 0.77532 0.02200
N 	N 	0.85058 0.17506 0.78274 -0.12400
C 	C 	0.87016 0.22856 0.65569 0.08000
N 	N 	0.82338 0.23688 0.65116 -0.12600
C 	C 	0.77531 0.27894 0.35448 -0.01100
C 	C 	0.72744 0.28478 0.33538 -0.11200
C 	C 	0.57406 0.37759 0.46309 0.07800
C 	C 	0.53089 0.30467 0.60392 -0.18900
C 	C 	0.37020 0.35312 0.24833 -0.13600
C 	C 	0.31850 0.30272 0.18158 0.07100
H 	H 	0.24058 0.12083 0.40003 -0.00900
H 	H 	0.32306 0.20763 0.53348 0.05200
H 	H 	0.43511 0.34234 0.63423 0.02300
H 	H 	0.43783 0.28745 0.48314 0.01100
H 	H 	0.55516 0.54361 0.25586 0.08300
H 	H 	0.51162 0.49974 0.47738 0.09000
H 	H 	0.60387 0.58821 0.38668 0.08800
H 	H 	0.65414 0.56831 1.01393 0.01900
H 	H 	0.74375 0.61402 0.96808 0.01000
H 	H 	0.81722 0.66930 0.13055 0.06200
H 	H 	0.92187 0.78374 0.17697 0.01700
H 	H 	0.82349 0.88452 0.29613 0.02200
H 	H 	0.71638 0.76717 0.25080 0.08200
H 	H 	0.75579 0.47108 0.04376 0.05400
H 	H 	0.78790 0.56833 -0.01183 0.04900
H 	H 	0.80107 0.54784 0.15416 0.05700
H 	H 	0.74420 0.43371 0.31377 0.01700
H 	H 	0.69440 0.41837 0.52312 0.02000
H 	H 	0.67047 0.31264 0.70866 0.06000
H 	H 	0.75244 0.29888 0.74681 0.03500
H 	H 	0.92574 0.37091 0.27799 0.02300
H 	H 	0.87275 0.10956 0.87110 0.02900
H 	H 	0.80575 0.27152 0.25169 0.01600
H 	H 	0.72221 0.28310 0.21874 0.04700
H 	H 	0.51962 0.25345 0.55406 0.06900
H 	H 	0.56178 0.31894 0.68094 0.07500
H 	H 	0.47779 0.28476 0.69027 0.06300
H 	H 	0.40823 0.41820 0.20091 0.06800
H 	H 	0.31766 0.32931 0.08275 0.00700
