data_crystal

_cell_length_a 17.35810
_cell_length_b 24.05780
_cell_length_c 35.04460
_cell_angle_alpha 114.59020
_cell_angle_beta  91.29710
_cell_angle_gamma 88.15190

_symmetry_space_group_name_	'P 1'
_symmetry_space_group_name_H-M	'P 1'

loop_
_symmetry_equiv_pos_as_xyz
  x,y,z

loop_
_atom_site_label
_atom_site_type_symbol
_atom_site_fract_x
_atom_site_fract_y
_atom_site_fract_z
_atom_site_charge
C 	C 	0.52735 0.48536 0.60955 0.47400
Ce	Ce	0.41526 0.52437 0.45273 2.16800
Ce	Ce	0.62853 0.48162 0.55104 2.15000
C 	C 	0.54606 0.58445 0.52153 0.36800
C 	C 	0.74507 0.47973 0.50015 0.45400
O 	O 	0.51571 0.47619 0.40844 -0.46000
O 	O 	0.44550 0.53869 0.39414 -0.47800
O 	O 	0.53033 0.46772 0.50153 -0.40600
O 	O 	0.42323 0.43720 0.46641 -0.44300
O 	O 	0.36247 0.50436 0.50509 -0.42500
O 	O 	0.30294 0.56843 0.48792 -0.49800
O 	O 	0.55935 0.53316 0.61170 -0.50000
O 	O 	0.54228 0.43797 0.57683 -0.53100
O 	O 	0.49722 0.59766 0.49885 -0.48800
O 	O 	0.54434 0.53052 0.52065 -0.41100
O 	O 	0.70574 0.43287 0.49349 -0.48100
O 	O 	0.72217 0.52707 0.53088 -0.50300
C 	C 	0.49780 0.49726 0.38169 0.43000
C 	C 	0.48016 0.42550 0.48553 0.38200
C 	C 	0.29920 0.53111 0.50460 0.38200
C 	C 	0.46858 0.50125 0.88083 0.39500
Ce	Ce	0.41795 0.49024 0.04917 2.21700
Ce	Ce	0.56583 0.49981 0.94114 2.16800
C 	C 	0.55132 0.40946 0.98933 0.40300
C 	C 	0.70809 0.51926 -0.02072 0.43900
O 	O 	0.52986 0.52156 0.08761 -0.46200
O 	O 	0.45457 0.47446 0.10847 -0.46700
O 	O 	0.49836 0.59104 0.98043 -0.46100
O 	O 	0.46333 0.53997 0.01294 -0.60200
O 	O 	0.30886 0.46495 1.00899 -0.48000
O 	O 	0.32131 0.43030 0.05488 -0.45800
O 	O 	0.45261 0.47510 0.90459 -0.52500
O 	O 	0.53596 0.52206 0.88558 -0.49500
O 	O 	0.48740 0.40439 0.00499 -0.47200
O 	O 	0.57282 0.46244 0.99380 -0.42700
O 	O 	0.65361 0.49736 -0.00869 -0.35500
O 	O 	0.68587 0.54241 0.95473 -0.48400
C 	C 	0.51786 0.50103 0.11431 0.40800
C 	C 	0.44777 0.58435 0.00356 0.50100
C 	C 	0.27886 0.43514 1.02657 0.40400
C 	C 	1.01950 0.03898 0.60156 0.49100
Ce	Ce	0.99731 -0.03003 0.46867 2.02700
Ce	Ce	0.07888 0.97485 0.52398 2.00900
C 	C 	0.09813 0.08537 0.49606 0.43300
C 	C 	0.23401 0.98231 0.51840 0.39900
O 	O 	1.07386 0.93028 0.41034 -0.44700
O 	O 	0.96229 -0.03931 0.40211 -0.39000
O 	O 	1.00016 0.89905 0.52413 -0.54400
O 	O 	0.95526 0.87673 0.46079 -0.52400
O 	O 	0.89665 0.00838 0.51447 -0.51800
O 	O 	0.87007 -0.02848 0.45017 -0.44200
O 	O 	-0.00508 0.04444 0.56927 -0.57600
O 	O 	0.08127 1.00712 0.59589 -0.49900
O 	O 	0.03356 0.06628 0.47824 -0.54500
O 	O 	0.12994 0.06061 0.51877 -0.43700
O 	O 	0.20165 0.93087 0.50782 -0.48100
O 	O 	0.18749 1.02860 0.53181 -0.35000
C 	C 	0.02763 0.94134 0.38587 0.41600
C 	C 	0.94977 0.87300 0.49575 0.45400
C 	C 	0.84465 -0.00845 0.48711 0.39900
C 	C 	1.10509 1.02153 0.90988 0.48700
Ce	Ce	0.89288 0.96966 0.03667 2.14800
Ce	Ce	0.11395 -0.00534 0.97858 2.17700
C 	C 	0.03576 0.88979 0.98817 0.35500
C 	C 	0.25010 0.02035 0.04708 0.21500
O 	O 	1.01368 -0.02455 0.06942 -0.36100
O 	O 	0.91916 1.01190 0.10872 -0.45900
O 	O 	1.04232 0.08406 1.01772 -0.55100
O 	O 	0.93164 0.05960 0.03759 -0.60100
O 	O 	0.84044 0.93029 0.96827 -0.51300
O 	O 	0.76175 0.97448 0.01696 -0.49100
O 	O 	0.06116 0.98402 0.91522 -0.50400
O 	O 	0.15519 0.04485 0.93938 -0.45900
O 	O 	0.01645 0.93804 0.02023 -0.54800
O 	O 	0.08823 0.89462 0.96539 -0.47200
O 	O 	0.17871 0.00945 0.03963 -0.20500
O 	O 	0.17882 0.00947 1.04021 -0.18900
C 	C 	-0.00837 0.00410 0.10689 0.28500
C 	C 	0.97479 0.09683 0.03217 0.51200
C 	C 	0.76938 0.94294 0.97752 0.36100
C 	C 	0.60990 0.62753 0.54469 -0.27800
C 	C 	0.59425 0.69873 0.56813 0.17200
C 	C 	0.64431 0.72190 0.60905 -0.17600
C 	C 	0.63424 0.79129 0.63424 0.08300
C 	C 	0.54906 0.80746 0.64615 -0.14700
C 	C 	0.49961 0.78691 0.60582 0.07800
C 	C 	0.50863 0.71679 0.58071 -0.17200
C 	C 	0.52595 0.82004 0.57896 -0.16200
C 	C 	0.61230 0.80404 0.56640 0.13200
C 	C 	0.63672 0.83882 0.53946 -0.09000
C 	C 	0.72262 0.83846 0.52980 -0.05900
C 	C 	0.77166 0.88143 0.55908 0.19100
F 	F 	0.74441 0.92124 0.59695 -0.40400
C 	C 	0.84743 0.88768 0.54872 0.30000
F 	F 	0.89001 0.93213 0.57795 -0.41300
C 	C 	0.87609 0.85357 0.50779 -0.23400
C 	C 	0.82637 0.81176 0.47799 0.31000
F 	F 	0.84941 0.78026 0.43774 -0.37800
C 	C 	0.75113 0.80368 0.48906 0.19800
F 	F 	0.70446 0.76418 0.45913 -0.38500
C 	C 	0.66067 0.82404 0.60755 -0.16400
C 	C 	0.62001 0.73313 0.54123 -0.18700
H 	H 	0.65648 0.61930 0.52159 0.12700
H 	H 	0.63299 0.61034 0.56767 0.04800
H 	H 	0.70627 0.71041 0.60111 0.09200
H 	H 	0.62776 0.69884 0.62926 0.07400
H 	H 	0.67002 0.80590 0.66331 0.02300
H 	H 	0.54155 0.85759 0.66497 0.07400
H 	H 	0.53047 0.78444 0.66602 0.07000
H 	H 	0.43812 0.79917 0.61451 0.02400
H 	H 	0.48874 0.69317 0.59993 0.07800
H 	H 	0.47083 0.70311 0.55247 0.08300
H 	H 	0.51757 0.87030 0.59731 0.08200
H 	H 	0.48853 0.80690 0.55053 0.07700
H 	H 	0.60317 0.82078 0.50959 0.09300
H 	H 	0.61743 0.88756 0.55569 0.08700
H 	H 	0.72276 0.81291 0.60039 0.10600
H 	H 	0.65387 0.87421 0.62629 0.11300
H 	H 	0.58385 0.71875 0.51222 0.10100
H 	H 	0.68084 0.72057 0.53128 0.10800
C 	C 	0.48148 0.36776 0.49297 -0.28100
C 	C 	0.46091 0.30574 0.45473 0.16900
C 	C 	0.50926 0.25375 0.45986 -0.17500
C 	C 	0.49343 0.19172 0.42324 0.08400
C 	C 	0.51472 0.19362 0.38158 -0.15100
C 	C 	0.46448 0.24293 0.37556 0.08000
C 	C 	0.48029 0.30583 0.41158 -0.17300
C 	C 	0.37885 0.22734 0.37522 -0.15900
C 	C 	0.35609 0.22578 0.41760 0.12600
C 	C 	0.26807 0.21060 0.41533 -0.08200
C 	C 	0.23647 0.18247 0.44369 -0.06200
C 	C 	0.24340 0.11873 0.43120 0.20300
F 	F 	0.28634 0.08294 0.39762 -0.37500
C 	C 	0.19982 0.08968 0.45013 0.30200
F 	F 	0.20582 0.02795 0.43561 -0.37400
C 	C 	0.14616 0.12229 0.48129 -0.22900
C 	C 	0.13857 0.18598 0.49457 0.31100
F 	F 	0.08628 0.21879 0.52426 -0.40200
C 	C 	0.18400 0.21592 0.47616 0.20100
F 	F 	0.17309 0.27701 0.48813 -0.40200
C 	C 	0.40817 0.17629 0.42314 -0.16800
C 	C 	0.37377 0.28973 0.45390 -0.18300
H 	H 	0.44141 0.37533 0.51910 0.13900
H 	H 	0.54042 0.36339 0.50454 0.05600
H 	H 	0.49483 0.25183 0.49009 0.07100
H 	H 	0.57193 0.26276 0.46086 0.06700
H 	H 	0.52904 0.15545 0.42612 0.00400
H 	H 	0.50550 0.14821 0.35519 0.07600
H 	H 	0.57687 0.20385 0.38184 0.07800
H 	H 	0.47870 0.24396 0.34511 0.02400
H 	H 	0.54175 0.31720 0.41116 0.09400
H 	H 	0.44442 0.34053 0.40566 0.07400
H 	H 	0.36886 0.18205 0.34877 0.07500
H 	H 	0.34289 0.26113 0.36871 0.06000
H 	H 	0.23372 0.25240 0.41979 0.07400
H 	H 	0.25390 0.17817 0.38264 0.07800
H 	H 	0.39428 0.17345 0.45299 0.09400
H 	H 	0.39937 0.13086 0.39694 0.12600
H 	H 	0.33830 0.32550 0.44920 0.08400
H 	H 	0.35762 0.28971 0.48446 0.10300
C 	C 	-0.00656 0.83064 0.97387 -0.30500
C 	C 	0.00067 0.79746 0.00376 0.14900
C 	C 	0.96194 0.73447 -0.01775 -0.12400
C 	C 	0.96565 0.70081 0.01133 0.09100
C 	C 	0.92160 0.73932 0.05191 -0.15200
C 	C 	0.95973 0.80142 0.07384 0.12000
C 	C 	-0.04260 0.83519 0.04517 -0.21800
C 	C 	0.04423 0.79191 0.08401 -0.18500
C 	C 	0.09128 0.75251 0.04384 0.13000
C 	C 	0.17665 0.74785 0.05910 -0.08500
C 	C 	0.23258 0.69481 0.03444 -0.05000
C 	C 	0.24698 0.64855 0.04870 0.17900
F 	F 	0.19518 0.63937 0.07384 -0.39700
C 	C 	0.31743 0.61515 0.04068 0.33000
F 	F 	0.33182 0.57876 0.06088 -0.59300
C 	C 	0.37403 0.62302 0.01514 -0.29900
C 	C 	0.35697 0.66630 -0.00173 0.32000
F 	F 	0.40847 0.67613 -0.02669 -0.40300
C 	C 	0.28828 0.70233 0.00846 0.18500
F 	F 	0.27862 0.74769 -0.00480 -0.39400
C 	C 	0.05105 0.69021 0.02185 -0.16800
C 	C 	0.08667 0.78588 0.01382 -0.18100
H 	H 	0.01640 0.79917 0.94267 0.11600
H 	H 	-0.06849 0.83955 0.96866 0.03300
H 	H 	-0.00917 0.70571 0.95219 0.05100
H 	H 	0.90055 0.74098 -0.02529 0.06700
H 	H 	0.93676 0.65659 -0.00485 0.07800
H 	H 	0.92244 0.71544 0.07310 0.11100
H 	H 	0.86028 0.74639 0.04462 0.08600
H 	H 	0.92889 0.82981 0.10341 0.01300
H 	H 	0.89677 0.84594 0.03898 0.00600
H 	H 	-0.01372 0.87852 0.06248 0.04300
H 	H 	0.04653 0.77041 0.10667 0.08000
H 	H 	0.06946 0.83753 0.09939 0.06200
H 	H 	0.20516 0.79140 0.06490 0.07500
H 	H 	0.17439 0.74899 0.09114 0.08200
H 	H 	0.08142 0.66086 -0.00760 0.09700
H 	H 	0.05270 0.66570 0.04270 0.12500
H 	H 	0.11673 0.83009 0.02849 0.09300
H 	H 	0.11719 0.75765 -0.01584 0.10800
C 	C 	0.93580 0.15378 0.03284 -0.31900
C 	C 	0.88831 0.13457 0.99115 0.17400
C 	C 	0.81675 0.09875 0.99323 -0.17200
C 	C 	0.77368 0.07477 0.95139 0.05900
C 	C 	0.82825 1.03264 0.91598 -0.14600
C 	C 	0.89579 1.06911 0.91266 0.10800
C 	C 	0.94021 0.09235 0.95360 -0.19600
C 	C 	0.86669 0.12275 0.90361 -0.17900
C 	C 	0.81258 0.16596 0.93921 0.13400
C 	C 	0.78648 0.21773 0.92573 -0.08900
C 	C 	0.71954 0.26008 0.94820 -0.05300
C 	C 	0.64506 0.25103 0.92978 0.20000
F 	F 	0.62839 0.19714 0.89720 -0.40500
C 	C 	0.58891 0.29876 0.94316 0.29600
F 	F 	0.51901 0.28946 0.92355 -0.42200
C 	C 	0.60730 0.35670 0.97439 -0.24300
C 	C 	0.68041 0.36427 0.99384 0.30700
F 	F 	0.70053 0.41922 0.02398 -0.39600
C 	C 	0.73525 0.31646 0.98129 0.20400
F 	F 	0.80625 0.32700 0.99945 -0.40800
C 	C 	0.74353 0.12847 0.94205 -0.15700
C 	C 	0.85838 0.18958 0.98221 -0.18900
H 	H 	0.97888 0.19071 0.03656 0.12200
H 	H 	0.89791 0.17197 0.06067 0.11000
H 	H 	0.77796 0.12790 1.01899 0.06800
H 	H 	0.82936 1.05776 0.99881 0.04900
H 	H 	0.72471 1.04939 0.95471 0.02000
H 	H 	0.80029 1.01550 0.88472 0.06900
H 	H 	0.84823 0.99219 0.92176 0.07000
H 	H 	0.93426 1.03943 0.88702 0.03200
H 	H 	0.95922 1.04975 0.95625 0.05200
H 	H 	0.99166 0.11696 0.95168 0.10700
H 	H 	0.83644 0.10438 0.87256 0.07700
H 	H 	0.91715 0.14764 0.90039 0.08800
H 	H 	0.83753 0.24544 0.92715 0.10000
H 	H 	0.77071 0.19636 0.89184 0.09400
H 	H 	0.70423 0.15780 0.96756 0.08400
H 	H 	0.70953 0.10977 0.91232 0.09000
H 	H 	0.90786 0.21683 0.98118 0.10200
H 	H 	0.82045 0.21976 1.00826 0.09700
C 	C 	0.22487 0.50273 0.50674 -0.28700
C 	C 	0.19187 0.46168 0.46116 0.16300
C 	C 	0.17232 0.39719 0.45788 -0.17200
C 	C 	0.13794 0.35732 0.41408 0.07900
C 	C 	0.19513 0.35000 0.37930 -0.14200
C 	C 	0.21324 0.41317 0.38138 0.06900
C 	C 	0.24867 0.45197 0.42437 -0.15900
C 	C 	0.13915 0.44549 0.37534 -0.16000
C 	C 	0.08012 0.45285 0.40984 0.13600
C 	C 	0.00633 0.48529 0.40229 -0.11600
C 	C 	0.93855 0.48384 0.42802 -0.02500
C 	C 	0.88819 0.43436 0.41230 0.19200
F 	F 	0.89897 0.38829 0.37372 -0.37600
C 	C 	0.82670 0.43171 0.43634 0.32800
F 	F 	0.78079 0.38234 0.42094 -0.37800
C 	C 	0.81239 0.47979 0.47558 -0.25600
C 	C 	0.86303 0.52917 0.49150 0.31700
F 	F 	0.85313 0.57496 0.53035 -0.40000
C 	C 	0.92539 0.53120 0.46782 0.19000
F 	F 	0.97283 0.57959 0.48385 -0.38100
C 	C 	0.06335 0.38810 0.40718 -0.16200
C 	C 	0.11634 0.49193 0.45360 -0.18800
H 	H 	0.18319 0.53948 0.52557 0.12500
H 	H 	0.23604 0.47436 0.52464 0.13800
H 	H 	0.13046 0.40127 0.48252 0.10200
H 	H 	0.22495 0.37428 0.46349 0.09400
H 	H 	0.12484 0.31139 0.41228 0.03300
H 	H 	0.17085 0.32077 0.34787 0.06600
H 	H 	0.24890 0.32752 0.38373 0.05400
H 	H 	0.25489 0.40793 0.35633 0.01300
H 	H 	0.30274 0.42885 0.42798 0.01100
H 	H 	0.26334 0.49582 0.42344 -0.00300
H 	H 	0.11456 0.41831 0.34360 0.07800
H 	H 	0.15325 0.49109 0.37666 0.07700
H 	H 	0.01903 0.53351 0.40893 0.09700
H 	H 	-0.01043 0.46382 0.36857 0.09600
H 	H 	0.02163 0.39079 0.43147 0.09000
H 	H 	0.03840 0.35914 0.37590 0.10500
H 	H 	0.12868 0.53846 0.45614 0.10400
H 	H 	0.07495 0.49717 0.47871 0.10500
C 	C 	0.19761 0.41432 1.01832 -0.29800
C 	C 	0.16878 0.38803 0.97136 0.17800
C 	C 	0.13449 0.32452 0.96076 -0.18000
C 	C 	0.10021 0.29774 0.91619 0.09700
C 	C 	0.16404 0.28987 0.88426 -0.14100
C 	C 	0.19789 0.35220 0.89350 0.07500
C 	C 	0.23221 0.37964 0.93818 -0.17400
C 	C 	0.13372 0.39534 0.88970 -0.15700
C 	C 	0.06879 0.40434 0.92166 0.11800
C 	C 	1.00697 0.44878 0.91637 -0.04300
C 	C 	0.93584 0.46150 0.94337 -0.06700
C 	C 	0.87493 0.42044 0.93025 0.20000
F 	F 	0.88149 0.36651 0.89595 -0.41100
C 	C 	0.80297 0.43758 0.94866 0.30600
F 	F 	0.74399 0.39883 0.93165 -0.44300
C 	C 	0.78816 0.49771 -0.02182 -0.22200
C 	C 	0.84911 0.53830 -0.00695 0.31400
F 	F 	0.83516 0.59726 0.02030 -0.41400
C 	C 	0.92345 0.51932 0.97678 0.19700
F 	F 	0.98215 0.55882 0.99107 -0.41300
C 	C 	0.03596 0.34076 0.91258 -0.21000
C 	C 	0.10396 0.43124 0.96659 -0.18600
H 	H 	0.16141 0.45497 0.03759 0.12800
H 	H 	0.18977 0.38155 1.03279 0.11500
H 	H 	0.08875 0.32843 0.98355 0.07900
H 	H 	0.18037 0.29271 0.96327 0.09400
H 	H 	0.07471 0.25330 0.91045 0.06300
H 	H 	0.13987 0.27080 0.85187 0.08300
H 	H 	0.21018 0.25774 0.88598 0.10400
H 	H 	0.24366 0.34660 0.87046 0.00900
H 	H 	0.28053 0.34974 0.94069 0.08400
H 	H 	0.25575 0.42417 0.94249 0.08900
H 	H 	0.10929 0.37559 0.85726 0.05400
H 	H 	0.15880 0.44000 0.89499 0.05900
H 	H 	0.03490 0.49261 0.92216 0.05700
H 	H 	0.98763 0.43066 0.88300 0.07500
H 	H 	0.99051 0.34485 0.93549 0.13200
H 	H 	1.01052 0.32003 0.88044 0.13000
H 	H 	0.12790 0.47694 0.97366 0.10000
H 	H 	0.05775 0.43791 0.98971 0.09200
C 	C 	0.76149 0.99448 0.49823 -0.28200
C 	C 	0.71191 0.03062 0.47913 0.16900
C 	C 	0.70262 0.99300 0.43089 -0.16900
C 	C 	0.65278 0.02952 0.41224 0.08000
C 	C 	0.69111 0.09057 0.42086 -0.14900
C 	C 	0.70084 0.12819 0.46855 0.08200
C 	C 	0.75081 0.09206 0.48721 -0.17400
C 	C 	0.62262 0.14119 0.49020 -0.16500
C 	C 	0.57957 0.08080 0.48071 0.13000
C 	C 	0.49833 0.10017 0.50060 -0.08600
C 	C 	0.44653 0.05217 0.50349 -0.06100
C 	C 	0.40511 0.01178 0.46815 0.20500
F 	F 	0.41660 0.00983 0.42951 -0.37700
C 	C 	0.34306 -0.02065 0.47293 0.31400
F 	F 	0.30346 -0.05775 0.43827 -0.35200
C 	C 	0.31590 -0.00851 0.51312 -0.22300
C 	C 	0.35765 0.03062 0.54827 0.30200
F 	F 	0.32979 0.04673 0.58745 -0.40700
C 	C 	0.42394 0.05860 0.54352 0.19900
F 	F 	0.45959 0.09876 0.57860 -0.39600
C 	C 	0.57319 0.04142 0.43258 -0.16700
C 	C 	0.63003 0.04400 0.49970 -0.18700
H 	H 	0.74011 0.94726 0.48744 0.11800
H 	H 	0.75688 1.01605 0.53312 0.13200
H 	H 	0.67567 0.94849 0.42426 0.09700
H 	H 	0.75859 0.98259 0.41446 0.12400
H 	H 	0.64674 0.00229 0.37780 0.03500
H 	H 	0.65569 0.11683 0.40696 0.07100
H 	H 	0.74865 0.08124 0.40575 0.09000
H 	H 	0.72869 0.17210 0.47461 0.02100
H 	H 	0.80871 0.08455 0.47261 0.08900
H 	H 	0.75890 0.11918 0.52151 0.08200
H 	H 	0.58895 0.17364 0.48172 0.06300
H 	H 	0.63182 0.16621 0.52467 0.07200
H 	H 	0.50577 0.13767 0.53238 0.09200
H 	H 	0.46606 0.12247 0.48292 0.07300
H 	H 	0.54983 -0.00384 0.42676 0.11900
H 	H 	0.53381 0.06227 0.41671 0.10400
H 	H 	0.63530 0.07029 0.53430 0.09300
H 	H 	0.60201 0.00036 0.49433 0.08900
C 	C 	0.70383 0.90512 0.94812 -0.26300
C 	C 	0.64182 0.92028 0.91892 0.17200
C 	C 	0.59250 0.86143 0.89691 -0.16800
C 	C 	0.53299 0.86788 0.86543 0.07800
C 	C 	0.57520 0.87862 0.83109 -0.13900
C 	C 	0.62158 -0.06285 0.85187 0.07700
C 	C 	0.68063 -0.06931 0.88332 -0.19900
C 	C 	0.56695 -0.00792 0.87494 -0.16300
C 	C 	0.52352 -0.01734 0.90989 0.12500
C 	C 	0.46877 0.03984 0.93082 -0.08200
C 	C 	0.41167 0.03391 0.96059 -0.07800
C 	C 	0.34232 0.00323 0.94524 0.21300
F 	F 	0.32298 -0.01786 0.90390 -0.40600
C 	C 	0.29212 -0.00639 0.97224 0.23200
F 	F 	0.23679 0.95183 0.95505 -0.58000
C 	C 	0.30372 0.02318 0.01589 -0.22300
C 	C 	0.37206 0.05510 0.03134 0.28200
F 	F 	0.38712 0.08112 0.07323 -0.41200
C 	C 	0.42615 0.05978 0.00397 0.21200
F 	F 	0.49175 0.09075 0.01998 -0.40400
C 	C 	0.47788 0.92250 0.88870 -0.15400
C 	C 	0.58354 -0.02503 0.94196 -0.20100
H 	H 	0.67028 0.88933 0.96800 0.09600
H 	H 	0.73546 0.86343 0.92606 0.09400
H 	H 	0.56149 0.85158 0.92079 0.07900
H 	H 	0.63067 0.82101 0.87946 0.07400
H 	H 	0.49923 0.82533 0.85057 0.02800
H 	H 	0.53306 0.88344 0.80818 0.07200
H 	H 	0.61427 0.83907 0.81318 0.06900
H 	H 	0.65208 -0.05530 0.82708 0.01500
H 	H 	0.72366 0.89411 0.86641 0.08600
H 	H 	0.70938 -0.02665 0.89716 0.07400
H 	H 	0.52529 -0.00276 0.85184 0.07900
H 	H 	0.59966 0.03509 0.88878 0.07600
H 	H 	0.50341 0.08142 0.94749 0.09200
H 	H 	0.43586 0.04921 0.90631 0.09200
H 	H 	0.44576 0.91307 0.91234 0.10200
H 	H 	0.43524 0.92645 0.86581 0.11600
H 	H 	0.61309 0.01860 0.95915 0.09500
H 	H 	0.55246 0.96578 0.96594 0.10800
C 	C 	0.57416 0.50842 0.14895 -0.29900
C 	C 	0.61317 0.44763 0.14678 0.19300
C 	C 	0.69899 0.45984 0.16087 -0.18600
C 	C 	0.73923 0.40176 0.16075 0.09100
C 	C 	0.73640 0.35022 0.11607 -0.15900
C 	C 	0.65179 0.33660 0.10210 0.09600
C 	C 	0.61105 0.39442 0.10204 -0.19700
C 	C 	0.61032 0.31681 0.13273 -0.17100
C 	C 	0.61231 0.36850 0.17803 0.14000
C 	C 	0.57037 0.34652 0.20785 -0.09300
C 	C 	0.55979 0.39406 0.25274 -0.05900
C 	C 	0.60994 0.39466 0.28509 0.19700
F 	F 	0.67363 0.35733 0.27601 -0.38500
C 	C 	0.59276 0.43143 0.32725 0.30800
F 	F 	0.63980 0.42805 0.35773 -0.37400
C 	C 	0.52592 0.46924 0.33790 -0.23900
C 	C 	0.47794 0.47088 0.30541 0.30100
F 	F 	0.41154 0.50513 0.31421 -0.40000
C 	C 	0.49382 0.43287 0.26350 0.19200
F 	F 	0.44184 0.43143 0.23360 -0.39900
C 	C 	0.69794 0.38209 0.19152 -0.16800
C 	C 	0.57229 0.42677 0.17725 -0.20000
H 	H 	0.54456 0.53373 0.17945 0.12400
H 	H 	0.61910 0.53947 0.14751 0.12900
H 	H 	0.70256 0.49743 0.19292 0.08900
H 	H 	0.73000 0.47467 0.13935 0.10000
H 	H 	0.80035 0.41155 0.17077 0.02700
H 	H 	0.76640 0.30831 0.11547 0.07200
H 	H 	0.76669 0.36411 0.09390 0.10200
H 	H 	0.64982 0.29921 0.06993 0.02000
H 	H 	0.63958 0.40842 0.07971 0.12400
H 	H 	0.55077 0.38294 0.09077 0.09200
H 	H 	0.63868 0.27428 0.13210 0.07800
H 	H 	0.54967 0.30587 0.12187 0.08700
H 	H 	0.51263 0.32969 0.19435 0.09100
H 	H 	0.60207 0.30577 0.20814 0.09200
H 	H 	0.70182 0.41917 0.22369 0.10400
H 	H 	0.72778 0.34074 0.19198 0.09800
H 	H 	0.51091 0.41768 0.16738 0.12600
H 	H 	0.57394 0.46453 0.20924 0.10700
C 	C 	0.40961 0.51594 0.85471 -0.29400
C 	C 	0.36922 0.46124 0.81956 0.17400
C 	C 	0.28856 0.48561 0.81268 -0.17400
C 	C 	0.24423 0.43555 0.77737 0.07800
C 	C 	0.23373 0.38131 0.78910 -0.14400
C 	C 	0.31318 0.35555 0.79510 0.07500
C 	C 	0.35837 0.40571 0.83062 -0.17000
C 	C 	0.35827 0.33381 0.75389 -0.16300
C 	C 	0.37017 0.38804 0.74175 0.13600
C 	C 	0.41498 0.36328 0.70004 -0.09400
C 	C 	0.43451 0.41143 0.68503 -0.05500
C 	C 	0.38620 0.42220 0.65587 0.18600
F 	F 	0.31694 0.39505 0.64463 -0.39400
C 	C 	0.41209 0.45652 0.63521 0.31900
F 	F 	0.36870 0.46062 0.60370 -0.41000
C 	C 	0.48610 0.48042 0.64354 -0.26900
C 	C 	0.53094 0.47549 0.67581 0.30900
F 	F 	0.60369 0.49699 0.68337 -0.42400
C 	C 	0.50597 0.44019 0.69592 0.18600
F 	F 	0.55467 0.42949 0.72313 -0.40200
C 	C 	0.28994 0.41463 0.73643 -0.16300
C 	C 	0.41508 0.43853 0.77799 -0.19000
H 	H 	0.43636 0.54473 0.84087 0.12600
H 	H 	0.36642 0.54622 0.87755 0.11800
H 	H 	0.29478 0.52567 0.80492 0.07800
H 	H 	0.25470 0.50136 0.84211 0.07000
H 	H 	0.18686 0.45434 0.77328 0.01800
H 	H 	0.20034 0.34521 0.76408 0.05900
H 	H 	0.20074 0.39674 0.81856 0.05400
H 	H 	0.30541 0.31606 0.80317 0.01400
H 	H 	0.32700 0.42045 0.86068 0.07800
H 	H 	0.41542 0.38593 0.83441 0.07700
H 	H 	0.32592 0.29714 0.72853 0.07600
H 	H 	0.41495 0.31350 0.75759 0.07800
H 	H 	0.46903 0.33940 0.70328 0.09300
H 	H 	0.38095 0.32732 0.67519 0.09500
H 	H 	0.29671 0.45451 0.72859 0.09900
H 	H 	0.25682 0.37979 0.71042 0.10200
H 	H 	0.47276 0.42023 0.78231 0.10700
H 	H 	0.42433 0.47783 0.76987 0.10100
C 	C 	0.04552 0.03756 0.14369 -0.24700
C 	C 	0.11037 1.00287 0.15796 0.15400
C 	C 	0.16179 1.05361 0.19037 -0.14700
C 	C 	0.22826 1.02578 0.20705 0.07400
C 	C 	0.27949 0.98453 0.17001 -0.14400
C 	C 	0.23051 0.93302 0.13805 0.07500
C 	C 	0.16248 0.96034 0.12128 -0.16800
C 	C 	0.19971 0.89547 0.16041 -0.16000
C 	C 	0.14584 0.93535 0.19727 0.13000
C 	C 	0.11448 0.89203 0.21623 -0.09200
C 	C 	0.09475 0.91963 0.26246 -0.04200
C 	C 	0.15021 0.91761 0.29184 0.19400
F 	F 	0.22515 0.90328 0.28069 -0.37700
C 	C 	0.12830 0.92598 0.33204 0.32400
F 	F 	0.18354 0.92233 0.35902 -0.33600
C 	C 	0.05029 0.93604 0.34381 -0.25200
C 	C 	0.99570 0.94293 0.31563 0.36400
F 	F 	0.92048 0.95532 0.32649 -0.38800
C 	C 	0.01770 0.93438 0.27518 0.14900
F 	F 	0.96296 0.93665 0.24752 -0.37200
C 	C 	0.19481 0.98817 0.22908 -0.16000
C 	C 	0.07833 0.96423 0.18018 -0.18000
H 	H 	0.01024 0.06579 0.17150 0.09600
H 	H 	0.07427 0.07126 0.13492 0.08700
H 	H 	0.12664 0.08571 0.21709 0.06200
H 	H 	0.18673 0.08184 0.17561 0.06400
H 	H 	0.26341 1.06321 0.22996 0.02500
H 	H 	0.32892 0.96494 0.18166 0.08000
H 	H 	0.30464 1.01182 0.15467 0.08300
H 	H 	0.26721 0.90283 0.11132 0.02800
H 	H 	0.18639 0.98671 0.10524 0.09000
H 	H 	0.12881 0.92307 0.09725 0.07700
H 	H 	0.24943 0.87680 0.17256 0.08500
H 	H 	0.16995 0.85519 0.13780 0.06200
H 	H 	0.06369 0.86758 0.19763 0.08200
H 	H 	0.15721 0.85422 0.21144 0.09200
H 	H 	0.15897 1.01899 0.25596 0.09100
H 	H 	0.24335 0.96993 0.24204 0.11700
H 	H 	0.04120 0.92800 0.15783 0.07700
H 	H 	0.04117 0.99394 0.20671 0.10300
C 	C 	0.97409 0.06415 0.64118 -0.33800
C 	C 	1.01697 0.10894 0.68071 0.23000
C 	C 	0.95708 0.15610 0.70975 -0.16600
C 	C 	-0.00310 0.20102 0.74988 0.04300
C 	C 	0.05899 0.23538 0.73800 -0.13900
C 	C 	0.11923 0.18904 0.70984 0.08700
C 	C 	0.07995 0.14432 0.66957 -0.20800
C 	C 	0.15672 0.15292 0.73319 -0.16700
C 	C 	0.09553 0.11770 0.74591 0.14300
C 	C 	0.13968 0.08025 0.76786 -0.08300
C 	C 	0.10247 0.06696 0.80233 -0.08600
C 	C 	0.10365 0.11230 0.84362 0.21700
F 	F 	0.11850 0.16998 0.85053 -0.44800
C 	C 	0.10103 0.09795 0.87836 0.24300
F 	F 	1.10563 0.14367 0.91748 -0.40600
C 	C 	1.09745 0.03705 0.87288 -0.20000
C 	C 	0.08819 0.99147 0.83178 0.26600
F 	F 	1.08255 0.93208 0.82538 -0.36600
C 	C 	0.09100 1.00616 0.79676 0.22200
F 	F 	0.08971 0.96028 0.75754 -0.39500
C 	C 	0.03451 0.16541 0.77374 -0.17900
C 	C 	0.05477 0.07346 0.70501 -0.24400
H 	H 	0.95227 0.02512 0.64666 0.15700
H 	H 	0.92223 0.08741 0.63473 0.14300
H 	H 	0.91073 0.13233 0.71809 0.08200
H 	H 	0.92897 0.18215 0.69313 0.08100
H 	H 	0.95348 0.23480 0.77015 0.04500
H 	H 	0.08742 0.26889 0.76674 0.05400
H 	H 	0.03213 0.26149 0.72110 0.06200
H 	H 	0.16437 0.21376 0.70152 0.01900
H 	H 	0.05390 0.16960 0.65192 0.08800
H 	H 	0.12503 0.11244 0.64934 0.10100
H 	H 	0.18718 0.18546 0.76157 0.07400
H 	H 	0.20088 0.12010 0.71273 0.08300
H 	H 	0.16201 0.03662 0.74313 0.08900
H 	H 	0.19334 0.10453 0.78257 0.08200
H 	H 	0.98918 0.14248 0.78345 0.10300
H 	H 	0.06176 0.19953 0.80220 0.10200
H 	H 	0.09700 0.03900 0.68417 0.10900
H 	H 	1.01007 0.04826 0.71328 0.12300
