data_crystal

_cell_length_a 27.58680
_cell_length_b 28.20500
_cell_length_c 32.88150
_cell_angle_alpha 95.13970
_cell_angle_beta  90.10140
_cell_angle_gamma 89.39870

_symmetry_space_group_name_	'P 1'
_symmetry_space_group_name_H-M	'P 1'

loop_
_symmetry_equiv_pos_as_xyz
  x,y,z

loop_
_atom_site_label
_atom_site_type_symbol
_atom_site_fract_x
_atom_site_fract_y
_atom_site_fract_z
_atom_site_charge
O 	O 	0.19913 1.00064 -0.00613 -0.44200
Sm	Sm	0.23516 0.94971 0.94583 2.22300
O 	O 	0.22207 0.93368 1.01105 -0.47200
C 	C 	0.17525 -0.03141 0.88618 0.37500
O 	O 	0.16130 0.94946 0.91782 -0.46100
O 	O 	0.22034 0.97821 0.88563 -0.49000
C 	C 	0.30157 0.01690 0.96722 0.40800
C 	C 	0.20233 0.97341 0.02228 0.40900
O 	O 	0.25737 0.02623 0.96104 -0.44700
O 	O 	0.31135 0.97281 -0.03744 -0.49000
O 	O 	0.07298 0.69743 0.24078 -0.49400
Sm	Sm	0.04627 0.71042 0.30504 2.15100
O 	O 	0.08691 0.76502 0.27376 -0.48300
C 	C 	0.98614 0.77393 0.34580 0.40300
O 	O 	-0.01297 0.76666 0.30731 -0.42900
O 	O 	0.01635 0.74840 0.36322 -0.49000
C 	C 	0.96476 0.65962 0.29010 0.40300
C 	C 	0.09250 0.73822 0.24067 0.31900
O 	O 	0.97356 0.69754 0.27381 -0.43500
O 	O 	-0.00215 0.64846 0.31427 -0.49600
O 	O 	0.75824 0.09226 0.48901 -0.42400
Sm	Sm	0.77013 1.02291 0.51728 2.15500
O 	O 	0.81957 1.08609 0.52696 -0.49400
C 	C 	0.67705 1.01263 0.53382 0.38100
O 	O 	0.70215 1.04697 0.55019 -0.50000
O 	O 	0.70058 0.98323 0.50926 -0.48000
C 	C 	0.79452 1.00836 0.43776 0.33800
C 	C 	0.79554 0.11229 0.50471 0.39300
O 	O 	0.75775 1.03257 0.45053 -0.39700
O 	O 	0.81829 0.99140 0.46610 -0.49400
O 	O 	0.00872 0.77134 0.66065 -0.50100
Sm	Sm	0.02178 0.77673 0.72784 2.33400
O 	O 	0.07357 0.80604 0.68514 -0.50600
C 	C 	1.01926 0.84955 0.78380 0.37100
O 	O 	0.99734 0.85006 0.74950 -0.51500
O 	O 	0.04133 0.81045 0.78962 -0.49100
C 	C 	0.00101 0.68922 0.74376 0.32100
C 	C 	0.04795 0.79314 0.65366 0.31100
O 	O 	-0.02728 0.72480 0.75369 -0.50500
O 	O 	0.04022 0.69952 0.72583 -0.51100
O 	O 	0.08630 0.25335 0.26465 -0.42300
Sm	Sm	0.14998 0.27716 0.22847 2.11700
O 	O 	0.15648 0.24362 0.28827 -0.49600
C 	C 	1.11191 0.24893 0.15625 0.30300
O 	O 	0.12367 0.21999 0.18228 -0.48400
O 	O 	0.11984 0.29262 0.16768 -0.48300
C 	C 	1.11502 0.35805 0.26814 0.33400
C 	C 	0.11131 0.23947 0.29363 0.34200
O 	O 	1.15970 0.34827 0.26465 -0.51400
O 	O 	0.08838 0.32652 0.25013 -0.41900
O 	O 	0.26272 -0.00569 0.51083 -0.43600
Sm	Sm	0.33403 0.03349 0.51405 2.14500
O 	O 	0.26096 0.06876 0.50772 -0.49900
C 	C 	0.31787 1.01404 0.59167 0.35400
O 	O 	0.30942 -0.01514 0.56101 -0.43200
O 	O 	0.33373 0.05340 0.58210 -0.51200
C 	C 	0.38180 0.96788 0.46653 0.32300
C 	C 	0.23672 0.03078 0.50672 0.40500
O 	O 	0.39291 0.97869 0.50396 -0.49200
O 	O 	0.34524 -0.00935 0.45417 -0.48800
O 	O 	-0.04504 0.21930 0.82287 -0.41000
Sm	Sm	0.03431 0.22048 0.80579 2.15600
O 	O 	0.00619 0.19620 0.86500 -0.50000
C 	C 	1.01978 0.18440 0.72946 0.32100
O 	O 	1.01241 0.16091 0.76030 -0.49100
O 	O 	0.03467 0.22676 0.73842 -0.47100
C 	C 	0.00353 0.31100 0.82417 0.42000
C 	C 	-0.03815 0.20347 0.85730 0.39400
O 	O 	-0.02161 0.27948 0.80433 -0.39300
O 	O 	0.04467 0.29582 0.83453 -0.49200
O 	O 	0.77828 0.98581 0.04464 -0.40300
Sm	Sm	0.77108 0.06391 0.03548 2.13700
O 	O 	0.81950 0.01167 0.99744 -0.48100
C 	C 	0.67681 0.06610 0.05299 0.32200
O 	O 	0.69473 0.04010 1.02273 -0.48200
O 	O 	0.70772 0.09202 0.07305 -0.49000
C 	C 	0.82813 0.05826 0.10161 0.38800
C 	C 	0.80846 0.97595 1.01609 0.34100
O 	O 	0.79101 0.03288 0.09433 -0.40000
O 	O 	0.83560 0.08683 0.07492 -0.48500
C 	C 	0.33810 0.05474 -0.02107 -0.17100
C 	C 	0.38424 0.03453 -0.00439 -0.04100
C 	C 	0.42867 0.03761 -0.02486 0.21500
F 	F 	0.43093 0.05768 0.93918 -0.38900
C 	C 	0.47134 0.02033 -0.00818 0.23400
F 	F 	0.51396 0.02463 -0.02803 -0.39700
C 	C 	0.47026 0.99932 0.02899 -0.08000
C 	C 	0.51672 0.98196 0.04726 -0.05000
C 	C 	0.54790 0.02320 0.06311 0.08500
C 	C 	0.59534 0.02766 0.04852 -0.04100
C 	C 	0.62527 0.06456 0.06498 -0.02500
C 	C 	0.60667 0.09810 0.09534 -0.05900
C 	C 	0.55920 0.09428 0.10969 0.12200
N 	N 	0.54068 0.12824 0.14089 -0.19600
C 	C 	0.53023 0.05656 0.09391 -0.10500
C 	C 	0.42572 0.99568 0.04920 0.23700
F 	F 	0.42344 0.97600 0.08536 -0.37800
C 	C 	0.38323 1.01354 0.03279 0.23000
F 	F 	0.34099 1.01118 0.05354 -0.36300
H 	H 	0.34522 1.07431 -0.04824 0.12300
H 	H 	0.32218 0.08072 0.00273 0.11200
H 	H 	0.53616 0.95809 0.02383 0.08500
H 	H 	0.50919 -0.03988 0.07296 0.09200
H 	H 	0.60939 1.00147 0.02529 0.08700
H 	H 	0.62919 0.12685 0.10829 0.07200
H 	H 	0.50549 0.12548 0.15203 0.10700
H 	H 	0.56196 0.15642 0.15312 0.10400
H 	H 	0.49390 0.05313 0.10568 0.09600
C 	C 	0.91984 0.63083 0.28149 -0.17400
C 	C 	0.92674 0.58128 0.29463 -0.02900
C 	C 	0.94017 0.54331 0.26609 0.20600
F 	F 	-0.05729 0.54952 0.22569 -0.38300
C 	C 	-0.04653 0.49924 0.27924 0.25000
F 	F 	-0.03219 0.46355 0.25124 -0.39200
C 	C 	0.95408 0.49262 0.32113 -0.09400
C 	C 	-0.02533 0.44726 0.33549 -0.05300
C 	C 	0.02824 0.44331 0.32648 0.08900
C 	C 	1.04643 0.40440 0.30139 -0.04100
C 	C 	0.09606 0.40056 0.29239 -0.02900
C 	C 	0.12762 0.43623 0.30841 -0.05900
C 	C 	0.10986 0.47540 0.33338 0.11000
N 	N 	0.14222 0.51191 0.34907 -0.19700
C 	C 	0.06027 0.47863 0.34273 -0.10500
C 	C 	0.93811 0.52978 0.34944 0.24000
F 	F 	0.93775 0.52431 0.39004 -0.38900
C 	C 	0.92456 0.57374 0.33627 0.22000
F 	F 	0.91162 0.60984 0.36438 -0.37500
H 	H 	0.91177 0.62944 0.24831 0.13000
H 	H 	-0.11147 0.64887 0.29772 0.13000
H 	H 	0.95468 0.41660 0.32019 0.08400
H 	H 	-0.03053 0.44574 0.36881 0.09700
H 	H 	1.02194 0.37684 0.28920 0.08600
H 	H 	0.16607 0.43362 0.30163 0.06200
H 	H 	0.12979 0.54083 0.36844 0.08800
H 	H 	0.17887 0.51056 0.34104 0.08900
H 	H 	0.04660 0.50882 0.36227 0.08700
C 	C 	0.62413 1.00817 0.54283 -0.15500
C 	C 	0.60115 0.96683 0.51772 -0.04100
C 	C 	0.59765 0.96708 0.47505 0.22200
F 	F 	0.61574 1.00386 0.45602 -0.38600
C 	C 	0.57482 0.92989 0.45173 0.23600
F 	F 	0.57154 0.93124 0.41065 -0.39200
C 	C 	0.55398 0.89235 0.47081 -0.08500
C 	C 	0.52378 0.85573 0.44608 -0.06000
C 	C 	0.47925 0.87886 0.42931 0.08800
C 	C 	0.44922 0.90851 0.45531 -0.04400
C 	C 	0.40997 0.93312 0.43964 -0.02800
C 	C 	0.39946 0.92623 0.39774 -0.06000
C 	C 	0.42829 0.89566 0.37168 0.12200
N 	N 	0.41738 0.88893 0.32906 -0.19500
C 	C 	0.46830 0.87234 0.38751 -0.09500
C 	C 	0.55834 0.89156 0.51337 0.23600
F 	F 	0.53862 0.85581 0.53269 -0.39100
C 	C 	0.58171 0.92847 0.53667 0.21600
F 	F 	0.58431 0.92719 0.57779 -0.39000
H 	H 	0.60515 1.04156 0.53619 0.10900
H 	H 	0.62013 1.00489 0.57603 0.11500
H 	H 	0.51174 0.82728 0.46492 0.09500
H 	H 	0.54651 0.83821 0.42105 0.08600
H 	H 	0.45767 0.91376 0.48758 0.08300
H 	H 	0.36935 0.94509 0.38515 0.07800
H 	H 	0.43805 0.86560 0.30945 0.11200
H 	H 	0.38844 0.90714 0.31677 0.11100
H 	H 	0.49102 0.84944 0.36716 0.08400
C 	C 	-0.01515 0.36040 0.83605 -0.16900
C 	C 	0.00901 0.39758 0.81283 -0.03800
C 	C 	0.00216 0.39715 0.77045 0.22000
F 	F 	0.97720 0.36144 0.74977 -0.38100
C 	C 	1.01833 0.43487 0.74934 0.22900
F 	F 	1.00869 0.43452 0.70885 -0.38800
C 	C 	0.04097 0.47421 0.77040 -0.08400
C 	C 	0.05199 0.51801 0.74867 -0.04800
C 	C 	1.01306 0.55650 0.75462 0.07700
C 	C 	0.02435 0.60342 0.74701 -0.03200
C 	C 	0.98915 0.63999 0.75196 -0.03100
C 	C 	0.94217 0.62920 0.76426 -0.05500
C 	C 	0.93005 0.58247 0.77087 0.12100
N 	N 	0.88176 0.57152 0.78239 -0.19400
C 	C 	0.96524 0.54636 0.76586 -0.08600
C 	C 	0.04895 0.47424 0.81261 0.24000
F 	F 	0.06978 0.51227 0.83381 -0.38600
C 	C 	0.03349 0.43608 0.83368 0.21900
F 	F 	0.04032 0.43803 0.87466 -0.37300
H 	H 	-0.01098 0.36814 0.86956 0.16400
H 	H 	-0.05470 0.36163 0.82958 0.13900
H 	H 	0.05652 0.50839 0.71538 0.09300
H 	H 	1.08743 0.53245 0.75983 0.08400
H 	H 	0.06071 0.61141 0.73740 0.06900
H 	H 	0.91465 0.65691 0.76810 0.07500
H 	H 	0.87240 0.53677 0.78753 0.11600
H 	H 	0.85499 0.59803 0.78573 0.11000
H 	H 	0.95476 0.51043 0.77061 0.09000
C 	C 	0.18539 0.98811 0.06499 -0.16300
C 	C 	0.19175 0.94964 0.09392 -0.02900
C 	C 	0.15176 0.93332 0.11503 0.21700
F 	F 	0.10639 0.95020 0.10853 -0.38000
C 	C 	0.15834 0.90046 0.14405 0.24400
F 	F 	0.11933 0.88708 0.16520 -0.38500
C 	C 	0.20478 0.88203 0.15163 -0.08500
C 	C 	0.21225 0.84770 0.18398 -0.05800
C 	C 	0.17957 0.80504 0.17810 0.09000
C 	C 	0.14981 0.79316 0.21021 -0.03500
C 	C 	0.12072 0.75249 0.20568 -0.02600
C 	C 	0.12066 0.72428 0.16824 -0.05900
C 	C 	0.14976 0.73618 0.13587 0.12200
N 	N 	0.14934 0.70743 0.09773 -0.19500
C 	C 	0.17964 0.77612 0.14106 -0.10000
C 	C 	0.24467 0.89803 0.13024 0.24000
F 	F 	0.29021 0.88200 0.13740 -0.38300
C 	C 	0.23829 0.93205 0.10227 0.22300
F 	F 	0.27784 0.94856 0.08381 -0.34900
H 	H 	0.14687 0.99956 0.06333 0.12600
H 	H 	0.20629 1.01977 0.07705 0.11900
H 	H 	0.20586 0.86755 0.21427 0.08200
H 	H 	0.25026 0.83435 0.18411 0.09200
H 	H 	0.15036 0.81492 0.23909 0.07700
H 	H 	0.09823 0.69292 0.16426 0.07700
H 	H 	0.17108 0.71593 0.07351 0.11000
H 	H 	0.12696 0.67775 0.09343 0.11000
H 	H 	0.20268 0.78489 0.11625 0.08600
C 	C 	0.80959 0.16181 0.49689 -0.16300
C 	C 	0.85662 0.17571 0.51790 -0.03600
C 	C 	0.85648 0.19858 0.55769 0.22100
F 	F 	0.81399 0.20973 0.57722 -0.38500
C 	C 	0.90015 0.20912 0.57798 0.23600
F 	F 	0.89911 0.23057 0.61663 -0.38200
C 	C 	0.94464 0.19697 0.55881 -0.07400
C 	C 	0.99162 0.20704 0.58143 -0.07800
C 	C 	0.99822 0.17474 0.61523 0.10600
C 	C 	1.00665 0.19395 0.65545 -0.03800
C 	C 	1.01173 0.16403 0.68716 -0.02000
C 	C 	0.00877 0.11453 0.67820 -0.05400
C 	C 	0.00114 0.09498 0.63807 0.12800
N 	N 	-0.00223 0.04453 0.62922 -0.19400
C 	C 	-0.00367 0.12509 0.60666 -0.09500
C 	C 	0.94475 0.17406 0.51896 0.22900
F 	F 	0.98707 0.16069 0.50005 -0.39000
C 	C 	0.90107 0.16333 0.49877 0.21900
F 	F 	0.90209 0.13985 0.46086 -0.40200
H 	H 	0.77996 0.18683 0.50757 0.12500
H 	H 	0.81307 0.16383 0.46343 0.12400
H 	H 	0.99188 0.24513 0.59350 0.10000
H 	H 	1.02302 0.20178 0.56059 0.13700
H 	H 	1.00874 0.23217 0.66216 0.09500
H 	H 	0.01279 0.09104 0.70235 0.07700
H 	H 	-0.00927 0.02966 0.59959 0.10500
H 	H 	0.00148 0.02167 0.65235 0.10300
H 	H 	-0.00960 0.10985 0.57566 0.10700
C 	C 	1.02133 0.89271 0.81363 -0.15400
C 	C 	1.00214 0.88332 0.85503 -0.04700
C 	C 	0.95197 0.88189 0.86195 0.22000
F 	F 	0.92038 0.88558 0.83067 -0.39100
C 	C 	0.93388 0.87676 0.90107 0.23600
F 	F 	0.88514 0.87454 0.90573 -0.39400
C 	C 	0.96602 0.87344 0.93428 -0.07900
C 	C 	0.95002 0.86753 0.97770 -0.06200
C 	C 	0.89672 0.87471 0.98685 0.09900
C 	C 	0.87667 0.92089 0.99275 -0.02400
C 	C 	0.82869 0.92772 1.00650 -0.02000
C 	C 	0.80058 0.88807 1.01340 -0.04800
C 	C 	0.81965 0.84192 1.00610 0.13100
N 	N 	0.79048 0.80172 0.01275 -0.19500
C 	C 	0.86772 0.83538 0.99303 -0.09100
C 	C 	1.01622 0.87351 0.92673 0.22900
F 	F 	0.04824 0.86871 0.95753 -0.38900
C 	C 	0.03410 0.87821 0.88763 0.22800
F 	F 	0.08277 0.87719 0.88163 -0.38100
H 	H 	0.00039 0.92248 0.80183 0.11600
H 	H 	0.05958 0.90433 0.81567 0.11700
H 	H 	0.97018 0.89314 0.99901 0.09500
H 	H 	0.96176 0.83143 0.98505 0.08700
H 	H 	0.89907 0.95136 0.98842 0.07900
H 	H 	0.76367 0.89304 1.02431 0.08100
H 	H 	0.80431 0.76712 0.00735 0.11100
H 	H 	0.75482 0.80630 0.02310 0.11200
H 	H 	0.88273 0.79966 0.98831 0.08300
C 	C 	0.18280 0.02868 0.50051 -0.16900
C 	C 	0.16379 0.07353 0.48388 -0.02800
C 	C 	0.13396 0.10579 0.50767 0.22000
F 	F 	0.11900 0.09590 0.54526 -0.39100
C 	C 	0.12070 0.14938 0.49346 0.24900
F 	F 	0.09376 0.18063 0.51789 -0.39500
C 	C 	0.13669 0.16133 0.45513 -0.08500
C 	C 	0.12666 0.21018 0.44140 -0.05600
C 	C 	0.09735 0.20782 0.40259 0.09400
C 	C 	0.11771 0.22222 0.36656 -0.03100
C 	C 	0.08999 0.22228 0.33077 -0.03100
C 	C 	0.04131 0.20807 0.33119 -0.05400
C 	C 	0.02092 0.19288 0.36689 0.13700
N 	N 	-0.02838 0.17770 0.36698 -0.19700
C 	C 	0.04899 0.19287 0.40243 -0.11000
C 	C 	0.16495 0.12822 0.43072 0.24000
F 	F 	0.18134 0.13884 0.39376 -0.40000
C 	C 	0.17800 0.08459 0.44480 0.22000
F 	F 	0.20607 0.05366 0.42089 -0.39400
H 	H 	0.16554 0.02242 0.53002 0.12500
H 	H 	0.17411 -0.00221 0.47840 0.12900
H 	H 	0.16204 0.22758 0.43721 0.07300
H 	H 	0.10697 0.23333 0.46515 0.09400
H 	H 	0.15495 0.23422 0.36671 0.07600
H 	H 	1.01927 0.20860 0.30391 0.08000
H 	H 	-0.04362 0.16571 0.39323 0.15200
H 	H 	0.95014 0.17801 0.34084 0.12800
H 	H 	0.03310 0.18169 0.43016 0.12600
C 	C 	0.14119 0.97855 0.85240 -0.15000
C 	C 	0.16268 0.96391 0.81078 -0.03900
C 	C 	0.16486 -0.00333 0.78102 0.20300
F 	F 	0.14696 0.04160 0.78881 -0.41000
C 	C 	0.18536 0.98342 0.74275 0.24400
F 	F 	0.18630 0.01565 0.71449 -0.40400
C 	C 	0.20571 0.93765 0.73403 -0.09300
C 	C 	0.23058 0.92414 0.69350 -0.05300
C 	C 	0.26984 0.95853 0.68399 0.08300
C 	C 	0.27622 0.96969 0.64356 -0.02900
C 	C 	0.31081 1.00310 0.63420 -0.03400
C 	C 	0.33918 0.02559 0.66555 -0.05200
C 	C 	0.33442 0.01346 0.70576 0.11300
N 	N 	0.36404 0.03588 0.73747 -0.19300
C 	C 	0.30037 0.97944 0.71472 -0.08100
C 	C 	0.20245 0.90453 0.76340 0.23200
F 	F 	0.22062 0.85971 0.75568 -0.40300
C 	C 	0.18027 0.91722 0.80110 0.21000
F 	F 	0.17668 0.88408 0.82840 -0.39400
H 	H 	0.10696 0.95906 0.85584 0.12400
H 	H 	0.13207 1.01711 0.85590 0.11300
H 	H 	0.20232 0.92266 0.66928 0.07600
H 	H 	0.24734 0.88811 0.69264 0.09000
H 	H 	0.25385 0.95272 0.61947 0.07000
H 	H 	0.36580 0.05168 0.65866 0.06400
H 	H 	0.36037 0.02754 0.76764 0.10900
H 	H 	0.38958 0.06127 0.73115 0.10600
H 	H 	0.29701 0.97012 0.74585 0.08000
C 	C 	0.95157 0.80823 0.36821 -0.17000
C 	C 	-0.02958 0.82562 0.41001 -0.03400
C 	C 	-0.04936 0.80897 0.44541 0.21700
F 	F 	-0.08532 0.77635 0.44265 -0.37600
C 	C 	-0.03223 0.82588 0.48402 0.23900
F 	F 	-0.05213 0.80948 0.51773 -0.39400
C 	C 	0.00456 0.86009 0.48795 -0.09100
C 	C 	0.02034 0.88064 0.52979 -0.05400
C 	C 	0.04915 0.84522 0.55194 0.08400
C 	C 	0.03291 0.83134 0.58953 -0.03100
C 	C 	0.06263 0.80330 0.61257 -0.02400
C 	C 	0.10807 0.78782 0.59751 -0.05800
C 	C 	0.12378 0.79982 0.55933 0.11700
N 	N 	0.17000 0.78345 0.54389 -0.19600
C 	C 	0.09445 0.82879 0.53678 -0.10400
C 	C 	0.02474 0.87633 0.45252 0.23500
F 	F 	0.06079 0.90889 0.45524 -0.39600
C 	C 	0.00781 0.85920 0.41391 0.21400
F 	F 	1.02745 0.87589 0.38021 -0.39700
H 	H 	0.91610 0.79038 0.37026 0.12800
H 	H 	-0.05463 0.83914 0.35012 0.11600
H 	H 	-0.01240 0.89309 0.54750 0.07200
H 	H 	0.04301 0.91267 0.52782 0.08900
H 	H 	0.99826 0.84417 0.60175 0.06500
H 	H 	0.13116 0.76636 0.61542 0.06400
H 	H 	0.18225 0.79229 0.51554 0.10200
H 	H 	0.19229 0.76223 0.56068 0.10100
H 	H 	0.10731 0.83933 0.50787 0.09300
C 	C 	0.86119 0.05322 0.13731 -0.16100
C 	C 	0.83337 0.05036 0.17653 -0.03600
C 	C 	0.80781 0.00876 0.18308 0.21800
F 	F 	0.80744 0.97129 0.15411 -0.36800
C 	C 	0.78356 0.00489 0.21985 0.23500
F 	F 	0.75971 -0.03590 0.22538 -0.39000
C 	C 	0.78540 0.04195 0.25138 -0.08500
C 	C 	0.76105 0.03662 0.29190 -0.05900
C 	C 	0.79358 0.01545 0.32300 0.09200
C 	C 	0.78061 0.02187 0.36447 -0.04700
C 	C 	0.80847 1.00145 0.39427 -0.01600
C 	C 	0.84992 0.97444 0.38245 -0.04900
C 	C 	0.86301 -0.03273 0.34122 0.11800
N 	N 	0.90487 0.93907 0.32933 -0.18900
C 	C 	0.83482 -0.01255 0.31169 -0.09000
C 	C 	0.81109 0.08347 0.24502 0.24000
F 	F 	0.81390 0.11960 0.27511 -0.38900
C 	C 	0.83454 0.08780 0.20785 0.21500
F 	F 	0.85881 0.12843 0.20260 -0.38400
H 	H 	0.88701 0.08332 0.13983 0.13400
H 	H 	0.88329 0.02024 0.13108 0.11900
H 	H 	0.72839 0.01403 0.28724 0.09800
H 	H 	0.74747 0.07213 0.30470 0.09500
H 	H 	0.74858 0.04281 0.37344 0.08600
H 	H 	0.87191 0.95868 0.40510 0.07800
H 	H 	0.91401 -0.06802 0.29855 0.11800
H 	H 	0.92704 0.92514 0.35120 0.12200
H 	H 	0.84527 -0.01920 0.28001 0.09500
C 	C 	-0.07858 0.19629 0.88651 -0.15700
C 	C 	-0.06596 0.21640 0.92940 -0.04500
C 	C 	-0.06945 0.18816 0.96239 0.21400
F 	F 	-0.08735 0.14337 0.95696 -0.40900
C 	C 	-0.05433 0.20581 1.00144 0.23000
F 	F 	-0.05767 0.17771 0.03271 -0.40100
C 	C 	-0.03377 0.25137 1.00781 -0.08100
C 	C 	-0.01394 0.26893 0.04941 -0.06100
C 	C 	0.03121 0.24300 0.06266 0.09300
C 	C 	1.05149 0.25779 0.10087 -0.05600
C 	C 	0.09118 0.23334 0.11609 -0.01500
C 	C 	0.11098 0.19374 0.09287 -0.06300
C 	C 	0.09228 0.17945 0.05418 0.12000
N 	N 	0.11283 0.13926 0.03038 -0.19400
C 	C 	0.05305 0.20441 0.03888 -0.08900
C 	C 	-0.03240 0.28036 0.97525 0.23200
F 	F 	-0.01379 0.32488 0.98044 -0.38500
C 	C 	-0.04948 0.26348 0.93666 0.22400
F 	F 	-0.04852 0.29261 0.90605 -0.40200
H 	H 	0.91400 0.15757 0.88528 0.11100
H 	H 	-0.11200 0.21422 0.87645 0.11500
H 	H 	0.95706 0.26566 0.07237 0.08900
H 	H 	-0.00545 0.30743 0.05046 0.10000
H 	H 	1.03557 0.28778 0.11933 0.07400
H 	H 	0.14149 0.17456 0.10457 0.06100
H 	H 	0.09797 0.12717 0.00215 0.10900
H 	H 	0.14257 0.12085 0.04115 0.10600
H 	H 	0.03989 0.19305 0.00866 0.08700
