data_crystal

_cell_length_a 15.82960
_cell_length_b 15.97060
_cell_length_c 15.62450
_cell_angle_alpha 110.28240
_cell_angle_beta  120.76550
_cell_angle_gamma 105.24600

_symmetry_space_group_name_	'P 1'
_symmetry_space_group_name_H-M	'P 1'

loop_
_symmetry_equiv_pos_as_xyz
  x,y,z

loop_
_atom_site_label
_atom_site_type_symbol
_atom_site_fract_x
_atom_site_fract_y
_atom_site_fract_z
_atom_site_charge
Mn	Mn	0.23881 0.22905 0.27507 1.17600
Mn	Mn	0.67546 0.76396 0.69050 1.18200
Mn	Mn	-0.04124 -0.00436 -0.01828 1.23800
C 	C 	0.01623 0.04289 0.28457 0.05200
C 	C 	0.01203 0.28481 0.05645 0.01600
C 	C 	0.25322 1.01228 0.05825 0.11300
C 	C 	0.87684 0.96887 0.67654 0.17200
C 	C 	0.89301 0.70396 0.91103 0.16700
C 	C 	0.67404 -0.04075 0.94023 0.07700
N 	N 	0.11916 0.12952 0.34254 -0.13200
N 	N 	0.11642 0.11956 0.25340 -0.23400
N 	N 	0.01692 0.03281 0.14697 -0.22400
N 	N 	0.95131 -0.01753 0.16269 -0.07000
N 	N 	0.94496 0.17745 0.98137 -0.04200
N 	N 	0.01129 0.14836 0.04114 -0.22900
N 	N 	0.11300 0.23316 0.14712 -0.23600
N 	N 	0.11707 0.32100 0.16073 -0.12800
N 	N 	0.30604 0.10479 0.16240 -0.15600
N 	N 	0.21853 0.11209 0.14599 -0.23600
N 	N 	0.11737 0.02833 0.03818 -0.23000
N 	N 	0.13519 0.96320 0.97992 -0.07500
N 	N 	0.77738 0.87950 0.62042 -0.13600
N 	N 	0.79503 0.87584 0.71102 -0.22600
N 	N 	0.89914 0.95835 0.81643 -0.16400
N 	N 	-0.04676 1.01935 0.79885 -0.11800
N 	N 	-0.03522 0.81128 -0.01486 -0.15000
N 	N 	0.90493 0.84214 0.92149 -0.15500
N 	N 	0.80265 0.75840 0.81488 -0.22800
N 	N 	0.79152 0.66984 0.80473 -0.14500
N 	N 	0.61646 0.86952 0.83083 -0.11100
N 	N 	0.69883 0.87694 0.82576 -0.22500
N 	N 	0.80123 0.96434 0.92757 -0.15700
N 	N 	0.78906 0.01855 0.00144 -0.11000
C 	C 	0.91905 0.63098 0.94404 -0.06400
C 	C 	0.83754 0.57856 -0.03864 -0.04600
C 	C 	0.78629 0.45848 -0.10141 -0.11800
C 	C 	0.87267 0.43127 -0.03872 0.05500
N 	N 	0.98374 0.50412 0.06877 -0.08400
N 	N 	1.03976 0.45971 0.10799 -0.08300
C 	C 	0.97186 0.35278 0.03077 0.06100
S 	S 	0.83281 0.30197 0.90349 -0.02100
H 	H 	0.01206 0.67647 0.02986 0.01100
H 	H 	0.90759 0.57015 0.86965 0.04900
H 	H 	0.76169 0.58762 -0.07860 0.01700
H 	H 	0.88530 0.61959 0.06045 0.04800
H 	H 	0.74754 0.41980 0.80222 0.04500
H 	H 	0.71370 0.42326 -0.10399 0.03400
C 	C 	0.31616 0.96369 1.03774 -0.03300
C 	C 	0.43904 1.01366 0.15826 -0.05600
C 	C 	0.49511 0.95157 0.14221 -0.12200
C 	C 	0.54676 0.97667 0.08976 0.05800
N 	N 	0.63768 1.07455 0.15063 -0.08500
N 	N 	0.68276 1.07622 0.09949 -0.06800
C 	C 	0.62608 0.97985 -0.00150 0.02700
S 	S 	0.51133 0.88077 0.96190 -0.02200
H 	H 	0.26400 -0.12245 -0.00405 -0.01900
H 	H 	0.32203 0.97279 0.97327 0.04700
H 	H 	0.43120 1.01245 0.22472 0.03600
H 	H 	0.49658 1.09831 0.19777 0.04600
H 	H 	0.43029 0.86444 1.08470 0.06400
H 	H 	0.56719 0.97362 0.23345 0.05500
C 	C 	0.96884 0.02707 0.34346 -0.07900
C 	C 	0.94630 0.11467 0.38421 0.01200
C 	C 	0.85003 0.08012 0.38941 -0.11400
C 	C 	0.88356 0.06221 0.48693 0.04700
N 	N 	0.98237 0.13695 0.60468 -0.06700
N 	N 	-0.01130 0.10864 0.67661 -0.11200
C 	C 	0.89439 0.01249 0.61443 -0.01200
S 	S 	0.79199 0.95154 0.46031 0.00700
H 	H 	0.03202 0.02879 0.42307 0.01100
H 	H 	0.88542 0.94727 0.27571 0.07500
H 	H 	0.91694 0.13607 0.31796 0.03700
H 	H 	0.02941 0.18780 0.47459 -0.00500
H 	H 	0.76760 0.00682 0.29881 0.03800
H 	H 	0.83201 0.14381 0.40870 0.05400
