data_crystal

_cell_length_a 37.47220
_cell_length_b 8.33610
_cell_length_c 9.39030
_cell_angle_alpha 105.08050
_cell_angle_beta  81.38680
_cell_angle_gamma 91.07280

_symmetry_space_group_name_	'P 1'
_symmetry_space_group_name_H-M	'P 1'

loop_
_symmetry_equiv_pos_as_xyz
  x,y,z

loop_
_atom_site_label
_atom_site_type_symbol
_atom_site_fract_x
_atom_site_fract_y
_atom_site_fract_z
_atom_site_charge
Co	Co	0.38404 0.77572 0.13076 1.20100
O 	O 	0.32477 0.64044 0.30565 -0.38900
Co	Co	0.36611 0.71170 0.37853 1.20500
O 	O 	0.33987 0.70416 0.08988 -0.40100
C 	C 	0.41215 0.59656 0.40026 0.20400
C 	C 	0.43505 0.66830 0.08239 0.17300
O 	O 	0.42924 0.82286 0.15668 -0.33500
O 	O 	0.40702 0.58595 0.04115 -0.31300
C 	C 	0.31762 0.64555 0.17864 0.35300
O 	O 	0.36504 0.98102 0.22363 -0.37600
O 	O 	0.34830 0.92270 0.44113 -0.37800
C 	C 	0.35017 1.02400 0.35981 0.30900
O 	O 	0.38731 0.51442 0.33119 -0.31300
O 	O 	0.40714 0.75611 0.45013 -0.33600
Co	Co	0.85482 0.70760 0.67627 1.20000
O 	O 	0.83136 1.05532 0.84435 -0.41200
Co	Co	0.86318 0.93369 0.90473 1.19800
O 	O 	0.82896 0.86366 0.63250 -0.41400
C 	C 	0.91843 0.92159 0.88907 0.21600
C 	C 	0.90625 0.60885 0.60429 0.19400
O 	O 	0.88345 0.55282 0.69780 -0.33400
O 	O 	0.89539 0.73614 0.56584 -0.32000
C 	C 	0.81937 1.00445 0.72070 0.35600
O 	O 	0.81489 0.65834 0.79079 -0.42200
O 	O 	0.82584 0.84042 0.99770 -0.42000
C 	C 	0.80645 0.72824 0.92933 0.34700
O 	O 	0.90267 1.01599 0.82570 -0.34100
O 	O 	0.89765 0.83114 0.95857 -0.36000
Co	Co	0.13756 0.10332 0.07590 1.20600
O 	O 	0.14911 0.46753 0.17599 -0.37900
Co	Co	0.12948 0.34808 0.30243 1.20200
O 	O 	0.15876 0.25073 -0.02151 -0.36100
C 	C 	0.07816 0.30843 0.39487 0.20300
C 	C 	0.08659 0.00723 0.10174 0.18500
O 	O 	0.11268 -0.03811 0.16053 -0.30800
O 	O 	0.09425 0.11728 0.02650 -0.31500
C 	C 	0.16109 0.40575 0.03854 0.31400
O 	O 	0.18012 0.06743 0.13436 -0.38500
O 	O 	0.17402 0.29067 0.32654 -0.40700
C 	C 	0.19175 0.16174 0.24723 0.34600
O 	O 	0.08408 0.39790 0.29958 -0.32100
O 	O 	0.10611 0.24231 0.42573 -0.35500
Co	Co	0.63542 0.51313 0.66671 1.25900
O 	O 	0.66968 0.10997 0.68286 -0.35700
Co	Co	0.63452 0.15030 0.84280 1.25900
O 	O 	0.63616 0.29727 0.65426 -0.43500
C 	C 	0.58717 0.03834 0.89977 0.22200
C 	C 	0.59173 0.50034 0.54680 0.22800
O 	O 	0.58765 0.52116 0.68878 -0.28700
O 	O 	0.62469 0.47482 0.48101 -0.22000
C 	C 	0.66547 0.21466 0.61200 0.32200
O 	O 	0.63857 0.55851 0.86679 -0.35200
O 	O 	0.65817 0.33367 0.93524 -0.34800
C 	C 	0.65051 0.48932 0.95851 0.32400
O 	O 	0.60751 -0.01900 0.77200 -0.33300
O 	O 	0.59815 0.16930 0.98936 -0.29300
C 	C 	0.28330 0.58004 0.13331 0.12500
N 	N 	0.26084 0.49577 0.21150 -0.01800
N 	N 	0.23423 0.44961 0.13407 -0.04900
C 	C 	0.24146 0.50954 0.01317 0.16700
C 	C 	0.21889 0.47376 -0.11095 0.42600
F 	F 	0.23158 0.56543 -0.21091 -0.29600
F 	F 	0.22302 0.30715 -0.18398 -0.32900
C 	C 	0.17855 0.51825 -0.05347 0.36500
F 	F 	0.16049 0.50256 -0.17456 -0.30900
F 	F 	0.17516 0.68296 0.03004 -0.35600
O 	O 	0.27210 0.59050 0.00878 -0.10100
C 	C 	0.79233 1.10087 0.67830 0.11500
N 	N 	0.77726 1.24635 0.76229 -0.02500
N 	N 	0.75154 0.27986 0.69163 -0.04300
C 	C 	0.75206 0.15216 0.56971 0.13900
C 	C 	0.72734 0.13210 0.45440 0.43000
F 	F 	0.74764 0.15066 0.32331 -0.32800
F 	F 	0.71515 0.97073 0.42666 -0.32400
C 	C 	0.69455 0.25357 0.49657 0.33000
F 	F 	0.67944 0.24420 0.36906 -0.28800
F 	F 	0.70559 0.41491 0.54778 -0.41200
O 	O 	0.77726 1.03990 0.55819 -0.10500
C 	C 	0.22594 0.12249 0.28981 0.12500
N 	N 	0.24253 0.97275 0.24134 -0.02300
N 	N 	0.27040 0.98328 0.31364 -0.04900
C 	C 	0.26951 0.13898 0.40142 0.16400
C 	C 	0.29600 0.20386 0.50709 0.42200
F 	F 	0.28685 0.36769 0.58026 -0.31500
F 	F 	0.29333 0.11370 0.61289 -0.34700
C 	C 	0.33510 1.19800 0.42582 0.36300
F 	F 	0.35690 0.28088 0.52704 -0.33800
F 	F 	0.33617 0.27954 0.31423 -0.36200
O 	O 	0.24185 0.22805 0.39063 -0.10600
C 	C 	0.77209 0.69176 1.00913 0.12000
N 	N 	0.76843 0.66415 1.14531 -0.02900
N 	N 	0.73346 0.67027 1.19265 0.00100
C 	C 	0.71768 0.70432 1.08398 0.16800
C 	C 	0.67838 0.75037 1.10293 0.42500
F 	F 	0.67001 0.87486 1.23357 -0.30500
F 	F 	0.67263 0.81584 0.98586 -0.38900
C 	C 	0.65360 0.60168 1.11028 0.35200
F 	F 	0.61924 0.66241 1.17562 -0.29400
F 	F 	0.66559 0.51224 1.20031 -0.33300
O 	O 	0.74107 0.71931 0.96865 -0.13700
C 	C 	0.44442 0.51350 0.41948 0.19900
N 	N 	0.45177 0.35057 0.36070 -0.00700
N 	N 	0.48292 0.32264 0.39956 0.00300
C 	C 	0.49294 0.47021 0.47964 0.20800
C 	C 	0.52451 0.48947 0.56246 0.42200
F 	F 	0.51885 0.63047 0.67990 -0.33800
F 	F 	0.52620 0.35234 0.61889 -0.33300
C 	C 	0.56048 0.50654 0.46456 0.40400
F 	F 	0.56064 0.65920 0.43058 -0.29200
F 	F 	0.56466 0.38013 0.33348 -0.30600
O 	O 	0.46934 0.59124 0.49524 -0.11200
C 	C 	0.95767 0.92043 0.88496 0.15300
N 	N 	0.97937 1.02323 0.82523 -0.00300
N 	N 	0.01205 -0.00495 0.84983 -0.03800
C 	C 	1.00862 -0.12354 -0.07597 0.20900
C 	C 	1.03969 -0.18599 -0.01973 0.41000
F 	F 	1.03039 -0.33645 0.01071 -0.30900
F 	F 	0.06888 0.78378 -0.13341 -0.34100
C 	C 	0.04920 -0.05998 0.12393 0.40000
F 	F 	0.04660 -0.13676 0.23972 -0.32200
F 	F 	1.02508 0.07434 0.16971 -0.36000
O 	O 	0.97496 0.82838 -0.05092 -0.07000
C 	C 	0.55375 -0.04194 0.94190 0.15300
N 	N 	0.52331 -0.03272 0.88483 -0.00300
N 	N 	0.49977 0.87634 0.94627 -0.03100
C 	C 	0.51703 0.81714 0.03867 0.21900
C 	C 	0.50195 0.69017 0.11835 0.40900
F 	F 	0.53010 0.58372 0.11600 -0.28700
F 	F 	0.48975 0.77010 0.26598 -0.34200
C 	C 	0.47170 0.58429 0.04618 0.40900
F 	F 	0.46867 0.44073 0.09376 -0.33200
F 	F 	0.48098 0.53617 -0.10672 -0.31000
O 	O 	0.55075 -0.13375 0.03808 -0.08500
C 	C 	0.04181 0.28204 0.46447 0.19300
N 	N 	0.03422 0.16212 0.53528 -0.01600
N 	N 	-0.00050 0.17834 0.58549 -0.00700
C 	C 	0.98766 0.30787 0.54409 0.19800
C 	C 	0.94983 0.37672 0.59536 0.41400
F 	F 	0.92613 0.25395 0.54221 -0.35500
F 	F 	0.94395 0.41730 0.74991 -0.35900
C 	C 	0.94322 0.53187 0.54143 0.40100
F 	F 	0.94676 0.48802 0.38618 -0.32300
F 	F 	0.96854 0.65048 0.58533 -0.35000
O 	O 	1.01348 0.37567 0.46853 -0.10600
