data_crystal

_cell_length_a 21.72940
_cell_length_b 15.02420
_cell_length_c 9.51840
_cell_angle_alpha 97.09030
_cell_angle_beta  83.50360
_cell_angle_gamma 82.40260

_symmetry_space_group_name_	'P 1'
_symmetry_space_group_name_H-M	'P 1'

loop_
_symmetry_equiv_pos_as_xyz
  x,y,z

loop_
_atom_site_label
_atom_site_type_symbol
_atom_site_fract_x
_atom_site_fract_y
_atom_site_fract_z
_atom_site_charge
Eu	Eu	0.39148 0.71141 0.15204 1.85000
O 	O 	0.25733 0.84555 0.16537 -0.26100
C 	C 	0.32648 0.61792 -0.07364 0.30400
O 	O 	0.42430 0.88295 0.05788 -0.32100
O 	O 	0.46035 0.80287 0.22442 -0.43900
O 	O 	0.50187 0.57379 0.14162 -0.34800
O 	O 	0.36319 0.66032 -0.13310 -0.33600
O 	O 	0.32199 0.62191 0.07418 -0.43400
O 	O 	0.31866 0.79717 0.32414 -0.40600
C 	C 	0.28651 0.86613 0.26428 0.27000
O 	O 	0.41901 0.61649 0.31133 -0.42100
C 	C 	0.47656 0.56415 0.25862 0.29200
C 	C 	0.45301 0.88137 0.16081 0.29900
Eu	Eu	0.83575 0.81566 0.75789 1.78100
O 	O 	0.73840 0.95096 0.52265 -0.21800
C 	C 	0.72055 0.71939 0.75342 0.28100
O 	O 	0.85729 0.85231 1.05729 -0.32300
O 	O 	0.90020 0.90404 0.86266 -0.42200
O 	O 	0.94456 0.70810 0.86671 -0.28100
O 	O 	0.68284 0.78726 0.79916 -0.28100
O 	O 	0.77199 0.72480 0.65716 -0.42000
O 	O 	0.83421 0.89399 0.56754 -0.39300
C 	C 	0.78198 0.96098 0.59019 0.25800
O 	O 	0.91944 0.71464 0.64463 -0.39300
C 	C 	0.95033 0.67120 0.74373 0.28000
C 	C 	0.89546 0.89653 1.00770 0.29600
Eu	Eu	0.11401 0.28510 0.10678 1.86200
O 	O 	0.24104 0.27107 0.23367 -0.26400
C 	C 	0.19252 0.37118 -0.11168 0.29900
O 	O 	0.06987 0.11152 -0.02751 -0.29300
O 	O 	0.04099 0.20095 0.18451 -0.45300
O 	O 	0.05139 0.46443 0.27767 -0.30300
O 	O 	0.17031 0.31410 -0.18459 -0.31300
O 	O 	0.18662 0.37220 0.03549 -0.43000
O 	O 	0.18829 0.16744 0.12872 -0.42800
C 	C 	0.23272 0.19205 0.21462 0.30600
O 	O 	0.11159 0.34485 0.33974 -0.41100
C 	C 	0.06919 0.42496 0.37342 0.29200
C 	C 	0.04111 0.12190 0.09227 0.31200
Eu	Eu	0.52230 0.32556 0.93390 1.79300
O 	O 	0.64714 0.27005 1.02807 -0.31700
C 	C 	0.62226 0.44022 0.80929 0.30300
O 	O 	0.50003 0.27299 1.20943 -0.34700
O 	O 	0.48449 0.20067 0.99924 -0.43300
O 	O 	0.42599 0.44572 0.74734 -0.28800
O 	O 	0.63724 0.37732 0.71310 -0.25600
O 	O 	0.56274 0.45437 0.88622 -0.43900
O 	O 	0.60890 0.22960 0.82357 -0.40100
C 	C 	0.65631 0.22612 0.90972 0.30900
O 	O 	0.48282 0.30637 0.72180 -0.40800
C 	C 	0.46544 0.38865 0.67391 0.29800
C 	C 	0.49273 0.20182 1.14192 0.29200
C 	C 	0.28981 0.56010 -0.15897 -0.09500
C 	C 	0.25808 0.49625 -0.09663 0.05200
C 	C 	0.22512 0.43917 -0.17835 -0.10000
C 	C 	0.22301 0.44804 -0.32324 0.06600
C 	C 	0.25387 0.51224 0.61306 -0.10900
C 	C 	0.25088 0.52171 0.46075 0.30200
O 	O 	0.27780 0.57758 0.40550 -0.24000
O 	O 	0.21726 0.46653 0.37966 -0.29600
C 	C 	0.28766 0.56733 -0.30426 0.07100
H 	H 	0.26016 0.48969 0.01496 0.04500
H 	H 	0.19703 0.40504 0.61367 0.04800
H 	H 	0.21806 0.48028 0.27804 0.17400
H 	H 	0.31231 0.61613 0.64694 0.04600
C 	C 	0.77918 1.04265 0.69609 -0.11500
C 	C 	0.72126 1.09413 0.75388 0.05200
C 	C 	0.71775 0.17180 0.85469 -0.10000
C 	C 	0.77297 0.19710 0.89987 0.03900
C 	C 	0.83142 0.14737 0.84114 -0.08500
C 	C 	0.88931 0.17536 0.88792 0.29000
O 	O 	0.94004 0.14801 0.81584 -0.21500
O 	O 	0.88599 0.23249 1.01638 -0.29600
C 	C 	0.83414 0.07038 0.73888 0.02700
H 	H 	0.67855 1.07298 0.72259 0.05200
H 	H 	0.77063 0.25736 0.97682 0.06300
H 	H 	0.92880 0.24372 1.04023 0.16600
H 	H 	0.87907 0.03204 0.69299 0.04400
C 	C 	0.26888 0.12195 0.28177 -0.09900
C 	C 	0.26020 1.03124 0.24861 0.04900
C 	C 	0.29117 0.96261 0.31279 -0.08400
C 	C 	0.33008 -0.01401 0.41574 0.03100
C 	C 	0.33978 0.07652 0.45034 -0.08600
C 	C 	0.38307 0.09960 0.55453 0.29100
O 	O 	0.40102 0.17342 0.56499 -0.22800
O 	O 	0.40515 0.03556 0.63846 -0.30200
C 	C 	0.30968 0.14427 0.38143 0.04300
H 	H 	0.22897 1.01335 0.17168 0.05500
H 	H 	0.35576 -0.06707 0.46322 0.04600
H 	H 	0.43639 0.05790 0.70108 0.17200
H 	H 	0.31736 0.21413 0.40614 0.05300
C 	C 	0.71656 0.63482 0.81430 -0.10800
C 	C 	0.66938 0.58205 0.78734 0.05500
C 	C 	0.66787 0.50068 0.84559 -0.09600
C 	C 	0.71167 0.47519 0.93658 0.03600
C 	C 	0.75908 0.52761 -0.03588 -0.07500
C 	C 	0.80621 0.49877 0.05672 0.29300
O 	O 	0.84413 0.54827 0.09148 -0.22400
O 	O 	0.80851 0.41392 0.10259 -0.28200
C 	C 	0.76153 0.60692 0.90088 0.04300
H 	H 	0.63541 0.60271 0.71807 0.03700
H 	H 	0.70907 0.41386 0.98426 0.05200
H 	H 	0.84174 0.40261 0.16775 0.18000
H 	H 	0.79811 0.64792 0.92018 -0.00700
C 	C 	0.50634 0.49762 0.34248 -0.10900
C 	C 	0.47236 0.47633 0.46555 0.04800
C 	C 	0.49819 0.40777 0.53866 -0.09300
C 	C 	0.55764 0.35973 0.48678 0.05100
C 	C 	0.59479 0.38611 0.37359 -0.08600
C 	C 	0.66095 0.34299 0.33496 0.30000
O 	O 	0.69563 0.37099 0.24565 -0.22100
O 	O 	0.68416 0.27071 0.40206 -0.28700
C 	C 	0.56845 0.45448 0.30031 0.03500
H 	H 	0.42550 0.51143 0.50286 0.05000
H 	H 	0.57668 0.30440 0.53954 0.06100
H 	H 	0.72727 0.23994 0.35661 0.17600
H 	H 	0.59597 0.47305 0.20903 0.03500
C 	C 	0.93623 0.94014 0.10039 -0.05500
C 	C 	-0.02629 1.00144 1.04877 0.01800
C 	C 	0.00656 0.05131 0.14137 -0.11100
C 	C 	1.00593 0.03438 0.28312 0.07100
C 	C 	0.97375 -0.03302 0.33254 -0.09100
C 	C 	0.97974 -0.05771 0.47680 0.29200
O 	O 	0.96318 0.87217 0.50940 -0.22400
O 	O 	1.00607 -0.00216 0.57486 -0.28900
C 	C 	0.93724 0.92214 0.24206 0.05000
H 	H 	-0.02415 1.01253 0.93806 0.05400
H 	H 	1.03246 0.07170 0.35358 0.05300
H 	H 	1.00917 -0.02771 0.66797 0.17900
H 	H 	0.90995 0.87289 0.28165 0.06700
C 	C 	0.49801 0.11821 0.20900 -0.09000
C 	C 	0.47440 1.04106 1.15127 0.04400
C 	C 	0.48029 0.96154 0.21642 -0.09000
C 	C 	0.51099 0.95976 0.33860 0.05200
C 	C 	0.53556 0.03603 0.39604 -0.08900
C 	C 	0.56835 0.03361 0.52373 0.28900
O 	O 	0.59351 0.09799 0.56650 -0.22400
O 	O 	0.57116 0.95744 0.59476 -0.29000
C 	C 	0.52857 0.11493 0.33100 0.04900
H 	H 	0.45071 0.04339 1.05725 0.04300
H 	H 	0.51559 0.89905 0.38987 0.05700
H 	H 	0.59618 0.96330 0.67841 0.16900
H 	H 	0.54775 0.17371 0.37449 0.05700
C 	C 	0.04392 0.45907 0.52355 -0.06600
C 	C 	0.01272 0.54833 0.56268 0.00100
C 	C 	0.98525 0.57875 0.70399 -0.04600
C 	C 	0.98783 0.51886 0.80587 0.01100
C 	C 	1.01835 0.42935 0.76844 -0.04000
C 	C 	1.01772 0.36656 0.87642 0.25100
O 	O 	1.03501 0.28565 0.84095 -0.26000
O 	O 	0.99575 0.40007 1.01931 -0.31000
C 	C 	0.04700 0.40017 0.62737 -0.00200
H 	H 	0.00991 0.59430 0.48340 0.06200
H 	H 	0.96379 0.54064 0.91351 0.06800
H 	H 	0.99797 0.35126 0.08364 0.09200
H 	H 	0.07017 0.33092 0.59770 0.06100
