data_crystal

_cell_length_a 41.85200
_cell_length_b 21.35300
_cell_length_c 12.91400
_cell_angle_alpha 88.93260
_cell_angle_beta  90.84640
_cell_angle_gamma 88.20780

_symmetry_space_group_name_	'P 1'
_symmetry_space_group_name_H-M	'P 1'

loop_
_symmetry_equiv_pos_as_xyz
  x,y,z

loop_
_atom_site_label
_atom_site_type_symbol
_atom_site_fract_x
_atom_site_fract_y
_atom_site_fract_z
_atom_site_charge
Eu	Eu	0.37275 0.74160 0.28618 1.85800
O 	O 	0.30136 0.78613 0.48303 -0.15100
C 	C 	0.35712 0.60396 0.26344 0.33700
O 	O 	0.38928 0.79313 0.08328 -0.30100
O 	O 	0.39954 0.82914 0.24275 -0.40700
O 	O 	0.43720 0.69762 0.21863 -0.26300
O 	O 	0.37845 0.61272 0.20202 -0.24600
O 	O 	0.34655 0.65264 0.32588 -0.41700
O 	O 	0.35266 0.78578 0.43211 -0.38200
C 	C 	0.32049 0.80324 0.41912 0.25400
O 	O 	0.41632 0.70481 0.37856 -0.39500
C 	C 	0.44067 0.68763 0.31154 0.34300
C 	C 	0.39898 0.83566 0.13550 0.29000
Eu	Eu	0.86999 0.74344 0.76499 1.90000
O 	O 	0.80604 0.80218 0.72702 -0.26900
C 	C 	0.83553 0.62073 0.81273 0.34200
O 	O 	0.90949 0.78491 0.95637 -0.27700
O 	O 	0.90119 0.82673 0.79537 -0.39300
O 	O 	0.91540 0.63786 0.81589 -0.27900
O 	O 	0.84673 0.63391 0.89708 -0.28800
O 	O 	0.83834 0.66168 0.72857 -0.40800
O 	O 	0.84903 0.79582 0.62352 -0.39500
C 	C 	0.81814 0.81725 0.64510 0.33300
O 	O 	0.90852 0.69562 0.66930 -0.38000
C 	C 	0.91851 0.64113 0.72235 0.28700
C 	C 	0.90946 0.83130 0.89970 0.33200
Eu	Eu	0.11757 0.26301 0.17937 1.89100
O 	O 	0.18101 0.20051 0.13964 -0.26700
C 	C 	0.16002 0.35812 0.08211 0.29600
O 	O 	0.05953 0.24393 0.05416 -0.30300
O 	O 	0.08593 0.17857 0.16652 -0.39900
O 	O 	0.08795 0.39068 0.23910 -0.27200
O 	O 	0.15395 0.32046 0.01546 -0.31000
O 	O 	0.14977 0.34714 0.18252 -0.40200
O 	O 	0.15246 0.20785 0.28610 -0.40500
C 	C 	0.17995 0.19075 0.23292 0.33000
O 	O 	0.09109 0.29624 0.32233 -0.39600
C 	C 	0.08495 0.36077 0.31965 0.34600
C 	C 	0.06511 0.19002 0.08309 0.28900
Eu	Eu	0.59991 0.25414 0.82901 1.90000
O 	O 	0.66098 0.18583 0.87291 -0.27800
C 	C 	0.63357 0.37530 0.88869 0.29600
O 	O 	0.58085 0.17111 1.00955 -0.30100
O 	O 	0.58721 0.15144 0.83932 -0.41100
O 	O 	0.53755 0.32340 0.80786 -0.27500
O 	O 	0.64297 0.33812 0.95595 -0.27900
O 	O 	0.61199 0.35696 0.81335 -0.42700
O 	O 	0.64121 0.22810 0.72333 -0.41000
C 	C 	0.66502 0.19605 0.78101 0.29500
O 	O 	0.56577 0.26818 0.69122 -0.40500
C 	C 	0.54006 0.30693 0.71848 0.30100
C 	C 	0.57927 0.13359 0.93961 0.35100
C 	C 	0.34202 0.54125 0.27095 -0.14400
C 	C 	0.30733 0.54659 0.23742 -0.04100
C 	C 	0.29915 0.56282 0.13415 0.22200
F 	F 	0.32231 0.57353 0.06401 -0.37600
C 	C 	0.26712 0.56869 0.10250 0.22900
F 	F 	0.26012 0.58666 1.00324 -0.37700
C 	C 	0.24257 0.55724 0.17298 -0.06600
C 	C 	0.20797 0.56341 0.13852 -0.08200
C 	C 	0.19837 0.50683 0.07991 0.15000
C 	C 	0.20260 0.49992 -0.02489 -0.10600
S 	S 	0.18852 0.43134 -0.06947 0.12500
C 	C 	0.17715 0.41490 0.05497 -0.01200
N 	N 	0.18374 0.45868 0.12520 -0.08500
C 	C 	0.25071 0.54059 0.27614 0.24100
F 	F 	0.22759 0.52923 0.34609 -0.36900
C 	C 	0.28279 0.53543 0.30815 0.23000
F 	F 	0.28982 0.51986 0.40848 -0.36600
H 	H 	0.35474 0.50706 0.22092 0.14500
H 	H 	0.34482 0.52348 0.35201 0.14200
H 	H 	0.20403 0.60640 0.08954 0.10100
H 	H 	0.19207 0.56900 0.20610 0.12100
H 	H 	0.21323 0.53448 0.92527 0.14000
C 	C 	0.79990 0.85896 0.56879 -0.14400
C 	C 	0.79218 0.92147 0.61651 -0.04100
C 	C 	0.81368 0.97051 0.60827 0.23100
F 	F 	0.84108 0.96291 0.55430 -0.36500
C 	C 	0.80733 0.02750 0.65668 0.23200
F 	F 	0.82866 0.07381 0.64743 -0.37500
C 	C 	0.77940 0.03634 0.71467 -0.07800
C 	C 	0.77286 0.09708 0.76981 -0.07800
C 	C 	0.74322 0.13046 0.72786 0.14900
C 	C 	0.73895 0.15055 0.62645 -0.09300
S 	S 	0.70265 0.18753 0.60408 0.11000
C 	C 	0.69488 0.17482 0.73264 -0.00500
N 	N 	0.71825 0.14442 0.78794 -0.08100
C 	C 	0.75784 0.98729 0.72264 0.24800
F 	F 	0.73086 0.99432 0.77897 -0.37000
C 	C 	0.76408 0.93048 0.67352 0.22900
F 	F 	0.74292 0.88385 0.68286 -0.35600
H 	H 	0.81435 0.86545 0.49810 0.13500
H 	H 	0.77770 0.83586 0.54415 0.13700
H 	H 	0.79314 0.12913 0.76269 0.11300
H 	H 	0.77015 0.08663 0.85383 0.10800
H 	H 	0.75661 0.14354 0.56703 0.10300
C 	C 	0.20845 0.16264 0.29091 -0.14500
C 	C 	0.21592 0.09623 0.25838 -0.03500
C 	C 	0.23015 0.08469 0.16224 0.21800
F 	F 	0.23714 0.13297 0.09741 -0.36700
C 	C 	0.23809 1.02343 0.13330 0.24600
F 	F 	0.25205 1.01389 0.04043 -0.38300
C 	C 	0.23253 0.97266 0.20091 -0.07500
C 	C 	0.24308 0.90688 0.17360 -0.07400
C 	C 	0.27497 0.89077 0.22327 0.13300
C 	C 	0.30277 0.91939 0.19670 -0.09000
S 	S 	0.33482 0.89326 0.26959 0.03400
C 	C 	0.30969 0.84374 0.33157 -0.05000
N 	N 	0.27881 0.84801 0.30026 -0.08400
C 	C 	0.21841 0.98413 0.29703 0.25400
F 	F 	0.21312 0.93597 0.36410 -0.36600
C 	C 	0.20999 0.04528 0.32532 0.21700
F 	F 	0.19631 0.05463 0.41868 -0.36600
H 	H 	0.22951 0.19197 0.27740 0.12300
H 	H 	0.20370 0.16426 0.37525 0.13600
H 	H 	0.24492 0.90181 0.08840 0.10500
H 	H 	0.22504 0.87324 0.20007 0.11200
H 	H 	0.30422 0.95541 0.13710 0.10700
C 	C 	0.81879 0.56034 0.79834 -0.14700
C 	C 	0.78726 0.56055 0.85366 -0.03900
C 	C 	0.76311 0.60552 0.82663 0.22500
F 	F 	0.76807 0.64951 0.75179 -0.37300
C 	C 	0.73360 0.60522 0.87578 0.23900
F 	F 	0.71109 0.65010 0.84955 -0.37900
C 	C 	0.72730 0.55888 0.95087 -0.06900
C 	C 	0.69496 0.55676 1.00065 -0.08000
C 	C 	0.67241 0.52058 0.93523 0.14400
C 	C 	0.65677 0.54486 0.84810 -0.09800
S 	S 	0.63288 0.49231 0.79017 0.11800
C 	C 	0.64494 0.43959 0.88575 -0.01500
N 	N 	0.66564 0.46076 0.95674 -0.08400
C 	C 	0.75129 0.51355 0.97727 0.24200
F 	F 	0.74573 0.46769 1.04837 -0.37400
C 	C 	0.78108 0.51460 0.92962 0.22800
F 	F 	0.80365 0.46995 0.95654 -0.37100
H 	H 	0.81409 0.55364 0.71440 0.11900
H 	H 	0.83505 0.52106 0.82521 0.12800
H 	H 	0.68495 0.60493 1.01216 0.10800
H 	H 	0.69712 0.53442 1.07894 0.11500
H 	H 	0.65912 0.59228 0.81907 0.12700
C 	C 	0.47086 0.65623 0.35318 -0.14600
C 	C 	0.46369 0.59675 0.41242 -0.03700
C 	C 	0.44893 0.54713 0.36209 0.22000
F 	F 	0.44106 0.55207 0.25986 -0.37400
C 	C 	0.44225 0.49200 0.41659 0.23400
F 	F 	0.42768 0.44525 0.36617 -0.39000
C 	C 	0.45090 0.48486 0.52185 -0.06900
C 	C 	0.44489 0.42452 0.57991 -0.08200
C 	C 	0.47394 0.38164 0.57796 0.14900
C 	C 	0.48491 0.35268 0.49029 -0.10000
S 	S 	0.51849 0.30691 0.51307 0.11500
C 	C 	0.51634 0.32858 0.63995 -0.00500
N 	N 	0.49176 0.36785 0.66292 -0.08000
C 	C 	0.46591 0.53414 0.57202 0.24200
F 	F 	0.47465 0.52834 0.67350 -0.36900
C 	C 	0.47206 0.58976 0.51804 0.22800
F 	F 	0.48638 0.63658 0.56905 -0.36800
H 	H 	0.48719 0.64464 0.28868 0.12700
H 	H 	0.48320 0.69005 0.40298 0.13600
H 	H 	0.42420 0.40041 0.54575 0.11100
H 	H 	0.43859 0.43471 0.66135 0.12200
H 	H 	0.47354 0.35815 0.41477 0.11700
C 	C 	0.91649 0.89434 0.94247 -0.14600
C 	C 	0.95181 0.90390 0.95867 -0.02500
C 	C 	0.97256 0.90232 0.87389 0.23000
F 	F 	0.96169 0.88667 0.77856 -0.35700
C 	C 	0.00429 0.91987 0.88540 0.23800
F 	F 	0.02333 0.91997 0.80116 -0.36800
C 	C 	0.01568 0.94090 0.98128 -0.06000
C 	C 	0.04812 0.96963 0.98961 -0.06900
C 	C 	0.04479 0.03991 0.98214 0.14800
C 	C 	0.02906 0.07188 0.90176 -0.09700
S 	S 	0.02971 0.15106 0.91327 0.13000
C 	C 	0.05160 0.13820 0.02543 -0.01600
N 	N 	0.05779 0.07766 0.05214 -0.08800
C 	C 	-0.00463 0.94033 0.06691 0.24000
F 	F 	0.00581 0.96045 0.16024 -0.36000
C 	C 	0.96379 0.92148 0.05601 0.22500
F 	F 	0.94451 0.92345 0.13959 -0.36000
H 	H 	0.90711 0.93117 0.88707 0.12400
H 	H 	0.90294 0.90049 1.01508 0.13200
H 	H 	0.06384 0.95328 0.92637 0.11700
H 	H 	0.06016 0.95476 0.06372 0.11300
H 	H 	0.01739 0.04945 0.83772 0.11600
C 	C 	0.56902 0.06794 0.96067 -0.15600
C 	C 	0.53570 0.06665 1.00411 -0.02400
C 	C 	0.50957 0.09368 0.94764 0.21800
F 	F 	0.51407 0.12305 0.85507 -0.38500
C 	C 	0.47856 0.09023 0.98566 0.24900
F 	F 	0.45389 0.11715 0.92975 -0.38500
C 	C 	0.47297 0.05818 0.07944 -0.08300
C 	C 	0.43931 0.05025 0.11676 -0.08100
C 	C 	0.42639 0.99026 0.07766 0.14800
C 	C 	0.41986 0.97946 -0.02525 -0.09300
S 	S 	0.40558 0.90684 -0.04565 0.11800
C 	C 	0.40884 0.89401 0.08562 -0.01300
N 	N 	0.41997 0.94180 0.14072 -0.08600
C 	C 	0.49902 0.03123 0.13600 0.24800
F 	F 	0.49426 -0.00044 0.22633 -0.37600
C 	C 	0.53014 0.03591 0.09921 0.21500
F 	F 	0.55474 0.00925 0.15573 -0.37100
H 	H 	0.56930 0.04159 0.88729 0.12900
H 	H 	0.58691 0.04448 1.01388 0.13900
H 	H 	0.42340 0.09004 0.08969 0.10500
H 	H 	0.43898 0.05020 0.20283 0.11200
H 	H 	0.42324 0.01336 -0.08703 0.11400
C 	C 	0.07572 0.39335 0.41720 -0.14700
C 	C 	0.04347 0.42683 0.40695 -0.03900
C 	C 	1.01582 0.39254 0.38963 0.22700
F 	F 	1.01801 0.32959 0.37688 -0.37300
C 	C 	0.98561 0.42248 0.38861 0.23600
F 	F 	0.95934 0.38772 0.37468 -0.37700
C 	C 	0.98254 0.48716 0.40662 -0.07000
C 	C 	0.94994 0.51844 0.41765 -0.08000
C 	C 	0.94352 0.53119 0.52953 0.14800
C 	C 	0.94528 0.48583 0.60698 -0.09700
S 	S 	0.93658 0.51444 0.72580 0.11600
C 	C 	0.93049 0.58639 0.66618 -0.00400
N 	N 	0.93490 0.58824 0.56310 -0.08300
C 	C 	1.01019 0.52172 0.42143 0.24300
F 	F 	1.00781 0.58416 0.43920 -0.36500
C 	C 	0.04044 0.49193 0.42120 0.22800
F 	F 	0.06662 0.52649 0.43812 -0.36600
H 	H 	0.07487 0.35842 0.48191 0.12100
H 	H 	0.09484 0.42616 0.43713 0.13300
H 	H 	0.93083 0.48844 0.38759 0.11200
H 	H 	0.94859 0.56283 0.37122 0.11400
H 	H 	0.95162 0.43710 0.59431 0.10800
