data_crystal

_cell_length_a 41.40960
_cell_length_b 19.09850
_cell_length_c 9.64900
_cell_angle_alpha 86.53840
_cell_angle_beta  93.45730
_cell_angle_gamma 86.58330

_symmetry_space_group_name_	'P 1'
_symmetry_space_group_name_H-M	'P 1'

loop_
_symmetry_equiv_pos_as_xyz
  x,y,z

loop_
_atom_site_label
_atom_site_type_symbol
_atom_site_fract_x
_atom_site_fract_y
_atom_site_fract_z
_atom_site_charge
Eu	Eu	0.37884 0.73230 0.12749 1.83500
O 	O 	0.34138 0.86353 0.00890 -0.27700
C 	C 	0.31564 0.65272 0.09396 0.28300
O 	O 	0.43780 0.76060 -0.01478 -0.30400
O 	O 	0.41106 0.82489 0.13456 -0.38700
O 	O 	0.44767 0.67244 0.30468 -0.21800
O 	O 	0.30722 0.68952 -0.01096 -0.25400
O 	O 	0.34834 0.63675 0.12983 -0.44000
O 	O 	0.33792 0.79918 0.21033 -0.40200
C 	C 	0.32961 0.85835 0.12148 0.35800
O 	O 	0.39576 0.69764 0.35041 -0.39500
C 	C 	0.42304 0.65173 0.35179 0.24700
C 	C 	0.43709 0.81228 0.05340 0.35500
Eu	Eu	0.87850 0.80422 0.70673 1.80200
O 	O 	0.86265 0.96001 0.37706 -0.19600
C 	C 	0.81918 0.71678 0.66435 0.26600
O 	O 	0.90948 0.75923 0.99187 -0.28800
O 	O 	0.92525 0.83244 0.81989 -0.41500
O 	O 	0.90224 0.65335 0.82172 -0.24900
O 	O 	0.83803 0.67308 0.72758 -0.24500
O 	O 	0.83110 0.77566 0.59794 -0.42100
O 	O 	0.88883 0.87146 0.51206 -0.38400
C 	C 	0.86933 0.93365 0.49418 0.26500
O 	O 	0.90754 0.71445 0.61711 -0.38800
C 	C 	0.91715 0.66085 0.71755 0.35300
C 	C 	0.93067 0.79423 0.94731 0.28300
Eu	Eu	0.09729 0.26043 0.16740 1.85100
O 	O 	0.15119 0.14239 0.13947 -0.25600
C 	C 	0.14889 0.35951 0.09539 0.34000
O 	O 	0.07652 0.15462 -0.04574 -0.29200
O 	O 	0.07658 0.15321 0.18856 -0.40700
O 	O 	0.04139 0.37045 0.25055 -0.27000
O 	O 	0.15425 0.30787 0.03015 -0.30500
O 	O 	0.11973 0.36634 0.15889 -0.42300
O 	O 	0.14176 0.21888 0.30410 -0.40600
C 	C 	0.16117 0.16850 0.24469 0.29500
O 	O 	0.07459 0.28585 0.36833 -0.40500
C 	C 	0.05560 0.34867 0.36032 0.29000
C 	C 	0.06970 0.12435 0.06232 0.36100
Eu	Eu	0.63255 0.26253 0.84660 1.89300
O 	O 	0.68359 0.15937 0.90797 -0.31100
C 	C 	0.68160 0.37860 0.86969 0.35800
O 	O 	0.56955 0.18461 0.93963 -0.25400
O 	O 	0.61700 0.15010 0.85153 -0.41200
O 	O 	0.58233 0.37304 0.83543 -0.27600
O 	O 	0.69706 0.32857 0.93082 -0.25600
O 	O 	0.64880 0.37456 0.83412 -0.39900
O 	O 	0.67277 0.22630 0.70953 -0.38300
C 	C 	0.69159 0.17452 0.79102 0.35400
O 	O 	0.59282 0.29488 0.67688 -0.38600
C 	C 	0.57271 0.34624 0.73055 0.34400
C 	C 	0.58947 0.13693 0.92210 0.27800
C 	C 	0.29154 0.62449 0.18416 -0.00900
C 	C 	0.29560 0.63019 0.32849 -0.05500
C 	C 	0.27332 0.60260 0.41740 0.11700
C 	C 	0.27727 0.60926 0.57173 -0.22000
C 	C 	0.24759 0.56672 0.36154 -0.09800
C 	C 	0.24387 0.55893 0.21803 0.11600
C 	C 	0.21990 0.51122 0.16570 -0.06400
C 	C 	0.22986 0.44063 0.15060 0.11300
Cl	Cl	0.27145 0.41243 0.17709 -0.27400
C 	C 	0.20683 0.39157 0.12238 0.15200
Cl	Cl	0.22068 0.30240 0.11477 -0.26100
C 	C 	0.17332 0.41285 0.10969 -0.13400
C 	C 	0.16359 0.48481 0.11857 0.15400
Cl	Cl	0.12226 0.51538 0.09591 -0.26500
C 	C 	0.18691 0.53369 0.14565 0.11500
Cl	Cl	0.17477 0.62332 0.15820 -0.22800
C 	C 	0.26549 0.58910 0.12891 -0.03500
H 	H 	0.31586 0.65698 0.37144 0.06000
H 	H 	0.29827 0.64024 0.60019 0.09700
H 	H 	0.28115 0.55620 0.62617 0.09300
H 	H 	0.25509 0.63605 0.60815 0.11300
H 	H 	0.23103 0.54279 0.43021 0.08900
H 	H 	0.26301 0.58183 0.01833 0.07900
C 	C 	0.85800 0.96929 0.61484 -0.07200
C 	C 	0.87932 0.97422 0.73182 -0.10600
C 	C 	0.86962 1.01143 0.84478 0.11000
C 	C 	0.89303 1.01954 0.96700 -0.21600
C 	C 	0.83818 1.04362 0.84030 -0.09700
C 	C 	0.81667 1.03915 0.72342 0.11000
C 	C 	0.78346 0.07264 0.72004 -0.06800
C 	C 	0.75766 0.03247 0.75835 0.11000
Cl	Cl	0.76442 0.94097 0.79882 -0.31000
C 	C 	0.72673 0.06531 0.76914 0.15900
Cl	Cl	0.69448 0.01347 0.81451 -0.29400
C 	C 	0.72143 0.13891 0.74411 -0.12400
C 	C 	0.74672 0.17824 0.69533 0.15800
Cl	Cl	0.74057 0.26992 0.65780 -0.21700
C 	C 	0.77770 0.14509 0.68396 0.12000
Cl	Cl	0.80978 0.19480 0.62868 -0.22900
C 	C 	0.82678 1.00248 0.61046 -0.03700
H 	H 	0.90391 0.95173 0.73261 0.05100
H 	H 	0.91626 0.98821 0.95859 0.10000
H 	H 	0.88231 1.00168 0.06478 0.10800
H 	H 	0.89836 0.07576 0.97139 0.11300
H 	H 	0.83044 0.07202 0.92767 0.08800
H 	H 	0.81032 0.99952 0.51962 0.07500
C 	C 	0.19387 0.14801 0.31000 0.00500
C 	C 	0.20586 0.18398 0.42327 -0.05700
C 	C 	0.23723 0.16744 0.48374 0.12900
C 	C 	0.25029 0.20711 0.60237 -0.22600
C 	C 	0.25662 0.11372 0.43197 -0.10000
C 	C 	0.24500 0.07727 0.31918 0.12200
C 	C 	0.26593 0.02161 0.26333 -0.06700
C 	C 	0.29380 0.03916 0.19538 0.11000
Cl	Cl	0.30266 0.12827 0.16830 -0.24000
C 	C 	0.31444 0.98611 0.14704 0.16800
Cl	Cl	0.35040 1.00962 0.07059 -0.22100
C 	C 	0.30711 0.91490 0.16498 -0.12600
C 	C 	0.27865 0.89776 0.22953 0.16300
Cl	Cl	0.26737 0.80985 0.24338 -0.25000
C 	C 	0.25840 0.95079 0.28011 0.12600
Cl	Cl	0.22386 0.92789 0.36798 -0.23100
C 	C 	0.21367 0.09452 0.25843 -0.04100
H 	H 	0.19100 0.22572 0.46351 0.07800
H 	H 	0.23223 0.24814 0.63172 0.10500
H 	H 	0.27229 0.23315 0.57182 0.11400
H 	H 	0.25677 0.17024 0.69469 0.11400
H 	H 	0.28088 0.10069 0.47863 0.09900
H 	H 	0.20493 0.06631 0.17094 0.09800
C 	C 	0.78388 0.70908 0.66380 -0.00100
C 	C 	0.76216 0.76745 0.62622 -0.06700
C 	C 	0.72865 0.76228 0.63356 0.12900
C 	C 	0.70539 0.82456 0.59425 -0.22500
C 	C 	0.71678 0.69812 0.67805 -0.10500
C 	C 	0.73812 0.63906 0.71358 0.12100
C 	C 	0.72508 0.57076 0.75361 -0.05800
C 	C 	0.72976 0.54143 0.89157 0.12300
Cl	Cl	0.75173 0.58567 1.01876 -0.23700
C 	C 	0.71620 0.47772 0.92960 0.16200
Cl	Cl	0.72144 0.44293 1.10421 -0.20500
C 	C 	0.69740 0.44366 0.83028 -0.11600
C 	C 	0.69305 0.47285 0.69200 0.16500
Cl	Cl	0.67065 0.43002 0.56377 -0.22000
C 	C 	0.70725 0.53546 0.65353 0.12200
Cl	Cl	0.70354 0.56847 0.47753 -0.22400
C 	C 	0.77162 0.64469 0.70654 -0.04500
H 	H 	0.77134 0.81736 0.59365 0.07800
H 	H 	0.71830 0.87140 0.56034 0.11400
H 	H 	0.69141 0.83742 0.68521 0.11500
H 	H 	0.68833 0.81162 0.50750 0.10500
H 	H 	0.69087 0.69387 0.68359 0.09500
H 	H 	0.78803 0.59885 0.73371 0.10600
C 	C 	0.42172 0.57805 0.40569 -0.00800
C 	C 	0.39164 0.54824 0.41514 -0.07100
C 	C 	0.39013 0.47741 0.46050 0.12000
C 	C 	0.35808 0.44511 0.46937 -0.22400
C 	C 	0.41887 0.43665 0.49966 -0.10200
C 	C 	0.44899 0.46633 0.49479 0.11800
C 	C 	0.47909 0.42615 0.55164 -0.05900
C 	C 	0.48390 0.40979 0.69602 0.12300
Cl	Cl	0.45276 0.42982 0.80800 -0.25500
C 	C 	0.51396 0.38003 0.75305 0.15600
Cl	Cl	0.51864 0.35789 0.93443 -0.21800
C 	C 	0.53988 0.36784 0.66657 -0.11600
C 	C 	0.53447 0.38082 0.52113 0.16200
Cl	Cl	0.56623 0.36664 0.40957 -0.22600
C 	C 	0.50405 0.40927 0.46398 0.11800
Cl	Cl	0.49722 0.42406 0.28155 -0.22000
C 	C 	0.45030 0.53667 0.44548 -0.04800
H 	H 	0.36941 0.57974 0.38554 0.05900
H 	H 	0.33748 0.48385 0.43773 0.09600
H 	H 	0.35530 0.42475 0.57798 0.10300
H 	H 	0.35703 0.40095 0.39987 0.11400
H 	H 	0.41778 0.38224 0.53667 0.10100
H 	H 	0.47359 0.55966 0.44189 0.09700
C 	C 	0.96200 0.79648 1.02706 0.00500
C 	C 	0.97408 0.74046 0.12077 -0.06300
C 	C 	1.00406 0.74368 0.19592 0.13600
C 	C 	1.01730 0.68408 0.29574 -0.23600
C 	C 	0.02155 0.80398 0.17930 -0.09600
C 	C 	1.00943 0.86002 0.08670 0.11500
C 	C 	0.02553 0.92668 0.08046 -0.03500
C 	C 	0.01362 -0.01780 0.15609 0.09500
Cl	Cl	0.98119 0.96996 0.26471 -0.24300
C 	C 	0.02743 0.04737 0.14608 0.16800
Cl	Cl	0.01008 0.11783 0.23338 -0.25500
C 	C 	0.05380 0.05714 0.06223 -0.13400
C 	C 	0.06571 0.00123 -0.01385 0.16900
Cl	Cl	0.09921 0.01114 0.88299 -0.23100
C 	C 	0.05140 -0.06377 0.99474 0.10000
Cl	Cl	0.06584 0.86656 0.89779 -0.20400
C 	C 	0.98005 0.85565 1.00936 -0.03400
H 	H 	0.96037 0.69425 0.13414 0.08500
H 	H 	1.00013 0.64166 0.30420 0.10900
H 	H 	1.02185 0.70394 0.40046 0.13600
H 	H 	0.04050 0.66166 0.26002 0.12500
H 	H 	0.04404 0.80817 0.24109 0.10800
H 	H 	0.97066 0.89986 0.93972 0.08300
C 	C 	0.58540 0.06411 0.97549 -0.00600
C 	C 	0.61315 0.01830 1.00205 -0.06500
C 	C 	0.61063 -0.05237 1.04416 0.11700
C 	C 	0.64044 -0.10111 1.07045 -0.24600
C 	C 	0.57996 0.92234 1.05962 -0.08100
C 	C 	0.55192 -0.03264 1.03458 0.09600
C 	C 	0.51987 0.93732 1.04086 -0.05000
C 	C 	0.50263 0.92296 0.91658 0.11800
Cl	Cl	0.51694 0.94970 0.75374 -0.21600
C 	C 	0.47477 0.88456 0.92102 0.16000
Cl	Cl	0.45346 0.86746 0.76332 -0.21900
C 	C 	0.46391 0.86007 0.04998 -0.11500
C 	C 	0.48018 0.87775 0.17475 0.15900
Cl	Cl	0.46691 0.84867 0.33810 -0.20900
C 	C 	0.50832 0.91555 0.17001 0.12800
Cl	Cl	0.52972 -0.06614 0.32652 -0.23900
C 	C 	0.55467 0.03858 0.99367 -0.03600
H 	H 	0.63690 0.03774 0.98964 0.09000
H 	H 	0.66288 -0.07310 1.05559 0.11500
H 	H 	0.63954 0.85633 0.99711 0.11600
H 	H 	0.64159 0.87549 1.17897 0.11100
H 	H 	0.57786 0.86718 1.08806 0.09100
H 	H 	0.53302 0.07303 0.97148 0.09500
C 	C 	0.05367 0.38835 0.48629 -0.00900
C 	C 	0.07763 0.37357 0.59466 -0.06000
C 	C 	0.07695 0.40958 0.71609 0.10300
C 	C 	0.10256 0.39345 0.83007 -0.19200
C 	C 	0.05170 0.45961 0.73211 -0.09700
C 	C 	0.02722 0.47429 0.62606 0.11000
C 	C 	-0.00085 0.52239 0.65046 -0.06200
C 	C 	0.96825 0.49591 0.66061 0.11500
Cl	Cl	0.96305 0.40527 0.64792 -0.24300
C 	C 	0.94148 0.54110 0.68462 0.16100
Cl	Cl	0.90269 0.50758 0.69348 -0.21800
C 	C 	0.94539 0.61310 0.69760 -0.13100
C 	C 	0.97639 0.63942 0.69107 0.15300
Cl	Cl	0.98193 0.72937 0.71148 -0.26700
C 	C 	0.00329 0.59395 0.66986 0.10800
Cl	Cl	0.04222 0.62732 0.66676 -0.25700
C 	C 	0.02860 0.43976 0.50146 -0.04100
H 	H 	0.09700 0.33378 0.58514 0.06900
H 	H 	0.12109 0.35335 0.80098 0.08000
H 	H 	0.09082 0.37296 0.92312 0.04100
H 	H 	0.11485 0.44202 0.85200 0.11300
H 	H 	0.05076 0.48620 0.82815 0.10000
H 	H 	0.00966 0.45135 0.41932 0.08900
