data_crystal

_cell_length_a 15.58440
_cell_length_b 20.69180
_cell_length_c 16.78490
_cell_angle_alpha 89.64160
_cell_angle_beta  90.12570
_cell_angle_gamma 90.70260

_symmetry_space_group_name_	'P 1'
_symmetry_space_group_name_H-M	'P 1'

loop_
_symmetry_equiv_pos_as_xyz
  x,y,z

loop_
_atom_site_label
_atom_site_type_symbol
_atom_site_fract_x
_atom_site_fract_y
_atom_site_fract_z
_atom_site_charge
Co	Co	0.93372 0.01884 0.94534 1.18700
Co	Co	0.09728 1.00788 0.09367 1.19700
Co	Co	0.92976 1.00864 0.08887 1.19400
Co	Co	0.10164 0.01653 0.94960 1.18700
O 	O 	0.11793 0.08214 0.15035 -0.41200
O 	O 	0.91844 0.09993 0.90603 -0.44300
O 	O 	0.94538 0.08325 0.77691 -0.46300
O 	O 	0.18009 0.97892 0.88426 -0.46000
Co	Co	0.02245 0.01680 0.77783 1.28700
O 	O 	0.10045 0.95145 0.77648 -0.43800
O 	O 	0.84709 0.96644 0.14778 -0.45200
Co	Co	1.00832 0.98307 0.25782 1.26400
O 	O 	0.92211 0.92404 0.24984 -0.46100
O 	O 	0.01868 0.00204 0.88231 -0.75100
O 	O 	1.01090 0.98336 0.15203 -0.78200
O 	O 	0.85086 1.03251 1.01695 -0.51500
O 	O 	0.18176 0.02881 0.02537 -0.47400
O 	O 	0.01694 0.04875 0.02256 -0.70800
O 	O 	0.09457 0.04106 0.27161 -0.45500
C 	C 	0.12758 0.08338 0.22605 0.39400
C 	C 	0.91340 0.11681 0.83298 0.38700
C 	C 	0.16589 0.94378 0.82269 0.36100
C 	C 	0.86795 0.95201 0.81243 0.36700
C 	C 	0.85732 0.92390 0.20291 0.37200
C 	C 	0.15564 0.92020 0.20795 0.37000
C 	C 	0.91008 0.09239 0.21604 0.38700
O 	O 	0.93534 0.95844 0.76960 -0.45700
O 	O 	0.85486 0.98451 0.87593 -0.45700
O 	O 	0.08687 0.91876 0.25037 -0.43500
O 	O 	0.17225 0.96398 0.15586 -0.46300
C 	C 	0.14563 0.10682 0.83566 0.38000
O 	O 	0.91533 0.08326 0.14138 -0.43200
O 	O 	0.11010 0.07504 0.77994 -0.44900
O 	O 	0.12828 0.09631 0.90895 -0.43400
O 	O 	0.93169 0.04930 0.26707 -0.45500
Co	Co	0.43617 0.51346 0.44038 1.20400
Co	Co	0.59853 0.52160 0.59277 1.20300
Co	Co	0.43160 0.51932 0.58831 1.20500
Co	Co	0.60254 0.51418 0.44407 1.20500
O 	O 	0.67341 0.56178 0.66117 -0.45100
O 	O 	0.36120 0.54511 0.36662 -0.44900
O 	O 	0.44428 0.55941 0.25677 -0.41900
O 	O 	0.62449 0.43097 0.42038 -0.42800
Co	Co	0.51973 0.49430 0.27382 1.27900
O 	O 	0.59241 0.42727 0.28989 -0.44700
O 	O 	0.40529 0.43874 0.62586 -0.43000
Co	Co	0.51059 0.51683 0.76050 1.27700
O 	O 	0.43005 0.45244 0.75547 -0.46500
O 	O 	0.52080 0.52168 0.37446 -0.75600
O 	O 	0.51316 0.53410 0.65670 -0.75700
O 	O 	0.35227 0.50770 0.51238 -0.50600
O 	O 	0.68236 0.51099 0.52087 -0.50200
O 	O 	0.51725 0.48446 0.51916 -0.75600
O 	O 	0.59146 0.58028 0.76975 -0.44600
C 	C 	0.65803 0.59172 0.72659 0.36800
C 	C 	0.37694 0.57108 0.29845 0.35800
C 	C 	0.62284 0.40237 0.35359 0.38400
C 	C 	0.39400 0.41278 0.34356 0.39500
C 	C 	0.39733 0.42081 0.69805 0.39800
C 	C 	0.63326 0.42650 0.70534 0.38100
C 	C 	0.36262 0.58639 0.71820 0.37100
O 	O 	0.42955 0.43847 0.28329 -0.44600
O 	O 	0.41095 0.43089 0.41365 -0.43800
O 	O 	0.59520 0.45643 0.76077 -0.45100
O 	O 	0.62459 0.44221 0.63252 -0.41600
C 	C 	0.67362 0.56466 0.30108 0.37200
O 	O 	0.35204 0.55676 0.65204 -0.45100
O 	O 	0.60980 0.54908 0.25659 -0.42600
O 	O 	0.68247 0.54498 0.37328 -0.45100
O 	O 	0.42614 0.57658 0.76554 -0.43300
C 	C 	0.86308 0.17721 0.81286 -0.13800
C 	C 	0.76588 0.16209 0.81692 -0.02500
C 	C 	0.71307 0.22291 0.79968 -0.08300
C 	C 	0.73487 0.25062 0.71615 -0.02200
C 	C 	0.67594 0.30773 0.68929 0.09500
O 	O 	0.68134 0.31488 0.60597 -0.25600
C 	C 	0.69692 0.37421 0.72770 -0.05500
O 	O 	0.70434 0.36941 0.81098 -0.23800
C 	C 	0.83197 0.26607 0.71069 -0.08200
C 	C 	0.88573 0.20585 0.73015 -0.02300
H 	H 	0.87927 0.21419 0.85870 0.06900
H 	H 	0.74859 0.12396 0.77288 0.03900
H 	H 	0.74880 0.14347 0.87723 0.04500
H 	H 	0.72740 0.25840 0.84735 0.05500
H 	H 	0.64365 0.21010 0.80298 0.04000
H 	H 	0.72141 0.21085 0.67327 0.03600
H 	H 	0.60869 0.29477 0.70540 0.00700
H 	H 	0.64332 0.28148 0.58174 0.13700
H 	H 	0.76021 0.39101 0.70466 0.07400
H 	H 	0.64800 0.35428 0.83206 0.13400
H 	H 	0.84795 0.28294 0.64949 0.05400
H 	H 	0.84980 0.30512 0.75295 0.05500
H 	H 	0.95488 0.21931 0.72871 0.02800
H 	H 	0.87411 0.16900 0.68342 0.04100
C 	C 	0.88059 0.15749 0.24496 -0.13300
C 	C 	0.80284 0.15169 0.30088 -0.02600
C 	C 	0.77768 0.21853 0.33218 -0.07600
C 	C 	0.75821 0.26589 0.26295 -0.02100
C 	C 	0.73565 0.33464 0.29203 0.10600
O 	O 	0.80736 0.36354 0.32933 -0.27800
C 	C 	0.65843 0.33547 0.34950 -0.06600
O 	O 	0.59331 0.29295 0.32376 -0.23300
C 	C 	0.83401 0.27009 0.20416 -0.07900
C 	C 	0.85958 0.20336 0.17482 -0.02700
H 	H 	0.93456 0.17920 0.27920 0.05900
H 	H 	0.74735 0.12960 0.26885 0.04400
H 	H 	0.81852 0.12010 0.35264 0.03900
H 	H 	0.83009 0.23825 0.37046 0.05600
H 	H 	0.71976 0.21208 0.37004 0.05100
H 	H 	0.70195 0.24626 0.22941 0.05100
H 	H 	0.71878 0.36283 0.23733 0.02500
H 	H 	0.80095 0.41110 0.32400 0.15200
H 	H 	0.68129 0.32045 0.40991 0.07300
H 	H 	0.55835 0.28178 0.37142 0.13000
H 	H 	0.81566 0.30008 0.15173 0.05100
H 	H 	0.89068 0.29353 0.23255 0.05700
H 	H 	0.91683 0.20921 0.13595 0.05100
H 	H 	0.80638 0.18276 0.13828 0.05800
C 	C 	0.79281 0.86889 0.20861 -0.14100
C 	C 	0.80598 0.82736 0.28455 -0.02400
C 	C 	0.74538 0.76845 0.28600 -0.07500
C 	C 	0.75956 0.72597 0.21169 -0.03200
C 	C 	0.70301 0.66352 0.21237 0.10100
O 	O 	0.61856 0.67863 0.23439 -0.27300
C 	C 	0.74111 0.61028 0.26799 -0.05200
O 	O 	0.80186 0.57463 0.22558 -0.23600
C 	C 	0.74291 0.76661 0.13605 -0.07900
C 	C 	0.80124 0.82681 0.13330 -0.02500
H 	H 	0.72736 0.88961 0.21046 0.06900
H 	H 	0.87322 0.80996 0.28784 0.04000
H 	H 	0.79394 0.85722 0.33819 0.03100
H 	H 	0.67794 0.78539 0.28848 0.05000
H 	H 	0.75768 0.74049 0.34140 0.03900
H 	H 	0.82796 0.71107 0.21068 0.04200
H 	H 	0.70177 0.64282 0.15111 0.02900
H 	H 	0.58889 0.69337 0.18522 0.14700
H 	H 	0.77330 0.63430 0.31965 0.04900
H 	H 	0.83805 0.55225 0.26575 0.13500
H 	H 	0.75560 0.73706 0.08226 0.04400
H 	H 	0.67490 0.78198 0.13353 0.04600
H 	H 	0.78418 0.85595 0.07979 0.02900
H 	H 	0.86886 0.81119 0.12598 0.02200
C 	C 	0.21989 0.86770 0.21617 -0.14500
C 	C 	0.18396 0.80489 0.18028 -0.02200
C 	C 	0.25102 0.75177 0.18484 -0.07900
C 	C 	0.28127 0.74100 0.27160 -0.02800
C 	C 	0.35103 0.68854 0.27801 0.10000
O 	O 	0.41706 0.69978 0.22255 -0.26700
C 	C 	0.31377 0.61928 0.26839 -0.05600
O 	O 	0.28889 0.60478 0.18994 -0.23000
C 	C 	0.31410 0.80494 0.30876 -0.08000
C 	C 	0.24661 0.85778 0.30310 -0.02000
H 	H 	0.27814 0.88198 0.18140 0.07300
H 	H 	0.12500 0.78883 0.21244 0.04300
H 	H 	0.16678 0.81298 0.11659 0.02200
H 	H 	0.30633 0.76522 0.14611 0.05900
H 	H 	0.22114 0.70709 0.16083 0.06500
H 	H 	0.22488 0.72469 0.30721 0.03800
H 	H 	0.37848 0.69094 0.33947 -0.00600
H 	H 	0.45431 0.73484 0.24390 0.13600
H 	H 	0.25571 0.61514 0.30661 0.06500
H 	H 	0.34005 0.60946 0.15525 0.16000
H 	H 	0.33005 0.79698 0.37264 0.03500
H 	H 	0.37323 0.82224 0.27804 0.04300
H 	H 	0.27445 0.90362 0.32649 0.03000
H 	H 	0.19008 0.84404 0.34016 0.04000
C 	C 	0.18319 0.13347 0.26665 -0.13600
C 	C 	0.14720 0.20164 0.25972 -0.02500
C 	C 	0.20187 0.24872 0.30927 -0.07600
C 	C 	0.29708 0.24761 0.28330 -0.02000
C 	C 	0.35459 0.29482 0.33199 0.10900
O 	O 	0.35991 0.27349 0.41151 -0.28200
C 	C 	0.32229 0.36510 0.32995 -0.07200
O 	O 	0.28341 0.37938 0.25630 -0.22400
C 	C 	0.33238 0.17822 0.28753 -0.07900
C 	C 	0.27666 0.13141 0.23842 -0.02600
H 	H 	0.18375 0.12089 0.33140 0.07500
H 	H 	0.14622 0.21767 0.19643 0.05400
H 	H 	0.08064 0.20197 0.28295 0.03900
H 	H 	0.19631 0.23626 0.37365 0.05800
H 	H 	0.17491 0.29758 0.30063 0.06000
H 	H 	0.30027 0.26304 0.21978 0.05600
H 	H 	0.41945 0.29360 0.30451 0.02100
H 	H 	0.41204 0.29403 0.43476 0.15100
H 	H 	0.27398 0.37058 0.37831 0.07300
H 	H 	0.24592 0.41721 0.26478 0.14500
H 	H 	0.39896 0.17767 0.26396 0.05100
H 	H 	0.33448 0.16100 0.35041 0.05900
H 	H 	0.30168 0.08170 0.24616 0.04500
H 	H 	0.28079 0.14440 0.17419 0.05600
C 	C 	0.72097 0.64337 0.75475 -0.13400
C 	C 	0.67210 0.69915 0.79496 -0.02700
C 	C 	0.73097 0.75565 0.81935 -0.07500
C 	C 	0.78540 0.78085 0.74858 -0.02700
C 	C 	0.84782 0.83643 0.77320 0.10500
O 	O 	0.89478 0.81762 0.84126 -0.29600
C 	C 	0.80245 0.90170 0.78830 -0.06200
O 	O 	0.76062 0.92247 0.71873 -0.24000
C 	C 	0.83632 0.72467 0.71244 -0.07800
C 	C 	0.77641 0.66975 0.68533 -0.02500
H 	H 	0.76435 0.62102 0.79956 0.06600
H 	H 	0.62134 0.71756 0.75451 0.03400
H 	H 	0.64001 0.68057 0.84980 0.03800
H 	H 	0.77292 0.73957 0.86918 0.05200
H 	H 	0.68994 0.79512 0.84167 0.04000
H 	H 	0.74144 0.79943 0.70149 0.04300
H 	H 	0.89236 0.84493 0.72182 0.02000
H 	H 	0.95494 0.83251 0.83343 0.13000
H 	H 	0.75492 0.89544 0.83736 0.05500
H 	H 	0.72139 0.95759 0.73476 0.13100
H 	H 	0.87329 0.74242 0.65990 0.03900
H 	H 	0.88301 0.70565 0.75683 0.05000
H 	H 	0.81657 0.63032 0.66138 0.04200
H 	H 	0.73479 0.68760 0.63606 0.02600
C 	C 	0.23045 0.89166 0.80454 -0.13500
C 	C 	0.20036 0.84814 0.73522 -0.02700
C 	C 	0.26379 0.79361 0.71934 -0.07300
C 	C 	0.27781 0.75176 0.79469 -0.03400
C 	C 	0.34119 0.69544 0.77988 0.10500
O 	O 	0.41021 0.71642 0.73182 -0.28600
C 	C 	0.29703 0.63598 0.74102 -0.05500
O 	O 	0.23789 0.60806 0.79443 -0.23800
C 	C 	0.31016 0.79522 0.86315 -0.07600
C 	C 	0.24722 0.85008 0.87961 -0.02800
H 	H 	0.29185 0.91595 0.78746 0.06600
H 	H 	0.13633 0.82654 0.74889 0.04200
H 	H 	0.19435 0.87782 0.68003 0.03900
H 	H 	0.32570 0.81564 0.69942 0.05100
H 	H 	0.23819 0.76307 0.67035 0.04400
H 	H 	0.21472 0.73052 0.81307 0.04800
H 	H 	0.36646 0.67844 0.83856 0.02400
H 	H 	0.45348 0.73660 0.76758 0.13700
H 	H 	0.26284 0.65192 0.68594 0.05500
H 	H 	0.19800 0.58098 0.76215 0.14000
H 	H 	0.31720 0.76586 0.91861 0.03700
H 	H 	0.37414 0.81650 0.84817 0.04100
H 	H 	0.27503 0.88090 0.92739 0.03000
H 	H 	0.18580 0.82936 0.90246 0.01900
C 	C 	0.34784 0.35955 0.71853 -0.13700
C 	C 	0.39395 0.29934 0.68924 -0.02200
C 	C 	0.34735 0.23924 0.72214 -0.07400
C 	C 	0.25144 0.23456 0.69619 -0.01600
C 	C 	0.18843 0.21111 0.76340 0.10700
O 	O 	0.17231 0.26215 0.81581 -0.27900
C 	C 	0.21915 0.15108 0.81196 -0.06500
O 	O 	0.27636 0.11478 0.76611 -0.23500
C 	C 	0.21948 0.29711 0.65433 -0.07400
C 	C 	0.25250 0.36087 0.69174 -0.01900
H 	H 	0.34734 0.35594 0.78481 0.07700
H 	H 	0.39622 0.29811 0.62305 0.04900
H 	H 	0.46084 0.29961 0.71195 0.03200
H 	H 	0.35264 0.23972 0.78818 0.05600
H 	H 	0.38219 0.19593 0.70135 0.05200
H 	H 	0.24817 0.19651 0.64957 0.04500
H 	H 	0.12743 0.19795 0.73203 0.01800
H 	H 	0.12034 0.24968 0.84668 0.14800
H 	H 	0.25328 0.16811 0.86640 0.06700
H 	H 	0.30446 0.08336 0.80231 0.13800
H 	H 	0.24083 0.29635 0.59115 0.05500
H 	H 	0.14822 0.29739 0.65270 0.05200
H 	H 	0.21210 0.37210 0.74425 0.05000
H 	H 	0.24173 0.40043 0.64796 0.05300
