data_crystal

_cell_length_a 30.05400
_cell_length_b 13.78510
_cell_length_c 6.64100
_cell_angle_alpha 80.08370
_cell_angle_beta  97.38090
_cell_angle_gamma 89.35140

_symmetry_space_group_name_	'P 1'
_symmetry_space_group_name_H-M	'P 1'

loop_
_symmetry_equiv_pos_as_xyz
  x,y,z

loop_
_atom_site_label
_atom_site_type_symbol
_atom_site_fract_x
_atom_site_fract_y
_atom_site_fract_z
_atom_site_charge
Eu	Eu	0.34945 0.75015 0.33852 1.80100
O 	O 	0.25818 0.88006 0.38280 -0.25000
C 	C 	0.25822 0.64546 0.40701 0.28100
O 	O 	0.42110 0.69234 0.08906 -0.29600
O 	O 	0.40043 0.83829 0.16241 -0.43400
O 	O 	0.47463 0.72819 0.56264 -0.22500
O 	O 	0.22299 0.65522 0.47499 -0.18900
O 	O 	0.29766 0.66879 0.52114 -0.40500
O 	O 	0.33340 0.88838 0.46184 -0.41300
C 	C 	0.29134 0.92984 0.37768 0.25700
O 	O 	0.40274 0.70837 0.62056 -0.39400
C 	C 	0.44347 0.67283 0.57795 0.27500
C 	C 	0.43053 0.77752 0.09611 0.29300
Eu	Eu	0.89231 0.73706 0.78894 1.81300
O 	O 	0.83710 0.90818 0.89395 -0.28400
C 	C 	0.81473 0.59026 0.78165 0.29400
O 	O 	0.98730 0.70426 0.95891 -0.32300
O 	O 	0.94265 0.83957 0.92199 -0.42200
O 	O 	0.92164 0.57014 0.56077 -0.28600
O 	O 	0.81275 0.61838 0.94456 -0.31100
O 	O 	0.84316 0.63533 0.64727 -0.42900
O 	O 	0.85048 0.86615 0.59345 -0.41300
C 	C 	0.82319 0.90654 0.71385 0.27600
O 	O 	0.93660 0.73158 0.53591 -0.42100
C 	C 	0.94787 0.63511 0.52098 0.27100
C 	C 	0.98483 0.79260 0.95833 0.28600
Eu	Eu	0.12027 0.28802 0.11246 1.74100
O 	O 	0.23222 0.35085 0.31780 -0.23100
C 	C 	0.17984 0.45222 -0.09342 0.29200
O 	O 	0.03555 0.16376 -0.04055 -0.28600
O 	O 	0.09542 0.13388 0.20845 -0.43100
O 	O 	0.02619 0.38623 0.13261 -0.28700
O 	O 	0.17797 0.41041 -0.24211 -0.28900
O 	O 	0.14490 0.44433 0.02637 -0.42700
O 	O 	0.18053 0.23513 0.35714 -0.41400
C 	C 	0.22156 0.26736 0.30191 0.26000
O 	O 	0.08823 0.34458 0.36355 -0.42300
C 	C 	0.05104 0.40566 0.27928 0.27900
C 	C 	0.06295 0.10414 0.06553 0.27700
Eu	Eu	0.61319 0.20886 0.91896 1.80400
O 	O 	0.70055 0.12678 0.90404 -0.32500
C 	C 	0.68384 0.36905 0.85664 0.29800
O 	O 	0.50994 0.11909 0.94797 -0.25100
O 	O 	0.58130 0.07422 1.09163 -0.43700
O 	O 	0.56739 0.40225 0.84530 -0.29900
O 	O 	0.68249 0.36987 1.03883 -0.28600
O 	O 	0.64790 0.33468 0.73882 -0.41900
O 	O 	0.63586 0.11283 0.70201 -0.43300
C 	C 	0.68165 0.09264 0.75955 0.28500
O 	O 	0.54810 0.26605 0.71470 -0.41400
C 	C 	0.53962 0.36273 0.73889 0.28700
C 	C 	0.53818 0.05304 1.00939 0.28700
C 	C 	0.25837 0.60160 0.21802 -0.10200
C 	C 	0.21890 0.56238 0.13002 0.05200
C 	C 	0.21967 0.50811 -0.03097 -0.05200
C 	C 	0.26037 0.49632 -0.10768 -0.02700
C 	C 	0.29940 0.53645 -0.02369 0.09300
Br	Br	0.35543 0.51073 -0.11203 -0.21300
C 	C 	0.29829 0.58955 0.13616 0.00500
H 	H 	0.18804 0.56890 0.19556 0.06600
H 	H 	0.26221 0.45247 -0.22710 0.07800
H 	H 	0.32897 0.61846 0.19885 -0.10900
C 	C 	0.77689 0.94152 0.62748 -0.02900
C 	C 	0.75254 0.00289 0.72571 -0.00100
C 	C 	0.70719 0.02948 0.65245 -0.04100
C 	C 	0.68634 -0.00690 0.48034 -0.06300
C 	C 	0.71056 0.93230 0.38194 0.12600
Br	Br	0.68185 0.87814 0.15546 -0.21800
C 	C 	0.75562 0.90733 0.45397 -0.04900
H 	H 	0.76882 0.02895 0.86062 0.06700
H 	H 	0.65132 0.01096 0.42340 0.06400
H 	H 	0.77348 0.85851 0.37803 0.07700
C 	C 	0.25374 0.19885 0.24320 -0.05500
C 	C 	0.25334 0.09699 0.31736 -0.01500
C 	C 	0.28782 1.03436 0.28363 -0.03900
C 	C 	0.32119 1.07280 0.16654 -0.03600
C 	C 	0.32028 0.17265 0.08287 0.10400
Br	Br	0.36675 0.22363 0.92855 -0.17800
C 	C 	0.28694 0.23551 0.12207 -0.03900
H 	H 	0.22794 1.06739 0.41038 0.06300
H 	H 	0.34799 1.02521 0.14025 0.06000
H 	H 	0.28795 0.31325 0.06371 0.08100
C 	C 	0.78739 0.50857 0.72362 -0.04800
C 	C 	0.74995 0.47767 0.82228 0.02400
C 	C 	0.72359 0.40204 0.75868 -0.04600
C 	C 	0.73548 0.35610 0.59939 -0.03300
C 	C 	0.77339 0.38428 0.50590 0.11400
Br	Br	0.79104 0.31615 0.30010 -0.22400
C 	C 	0.79896 0.46074 0.56606 -0.03900
H 	H 	0.74074 0.51361 0.94453 0.06700
H 	H 	0.71590 0.29677 0.55056 0.06300
H 	H 	0.82821 0.48169 0.49116 0.08100
C 	C 	0.45007 0.56749 0.56825 -0.06200
C 	C 	0.49178 0.51834 0.64080 0.02100
C 	C 	0.49713 0.41630 0.64364 -0.04500
C 	C 	0.46069 0.36483 0.56578 -0.03600
C 	C 	0.41931 0.41375 0.49290 0.11700
Br	Br	0.36908 0.34271 0.40028 -0.18500
C 	C 	0.41401 0.51416 0.49549 -0.01200
H 	H 	0.51957 0.55886 0.70155 0.06900
H 	H 	0.46385 0.28634 0.56743 0.08900
H 	H 	0.38152 0.55005 0.44511 0.01500
C 	C 	1.02621 0.84838 0.98986 -0.03200
C 	C 	1.02396 -0.05118 0.00642 -0.00600
C 	C 	0.06359 0.00026 0.04036 -0.05200
C 	C 	0.10529 -0.04828 1.05308 -0.04900
C 	C 	0.10777 0.85358 1.02973 0.13700
Br	Br	0.16524 0.79195 1.03812 -0.19800
C 	C 	0.06856 0.80158 0.99995 -0.04700
H 	H 	0.99172 -0.01371 -0.00221 0.06200
H 	H 	0.13609 -0.00930 1.07757 0.06000
H 	H 	0.07130 0.72499 0.98361 0.08500
C 	C 	0.52673 -0.05059 1.00510 -0.04200
C 	C 	0.48407 -0.08491 1.04115 0.00200
C 	C 	0.47436 0.81505 0.04450 -0.02700
C 	C 	0.50769 0.75025 0.00825 -0.04200
C 	C 	0.54967 0.78466 -0.03293 0.13400
Br	Br	0.59420 0.69593 -0.08697 -0.19100
C 	C 	0.55919 -0.11639 -0.03363 -0.05400
H 	H 	0.45899 -0.03425 1.07176 0.06600
H 	H 	0.50128 0.67281 0.01245 0.08400
H 	H 	0.59167 -0.09039 -0.06776 0.08300
C 	C 	0.04302 0.49561 0.36211 -0.05700
C 	C 	0.99958 0.52401 0.39012 0.01000
C 	C 	0.99230 0.61069 0.46792 -0.05800
C 	C 	0.02863 0.67049 0.50985 -0.04000
C 	C 	0.07194 0.64170 0.48418 0.10500
Br	Br	0.12124 0.72113 0.55150 -0.19300
C 	C 	0.07925 0.55408 0.41273 -0.04400
H 	H 	0.97172 0.47771 0.35539 0.04800
H 	H 	0.02373 0.73766 0.56927 0.07100
H 	H 	0.11301 0.53275 0.39282 0.07500
