data_crystal

_cell_length_a 33.39850
_cell_length_b 13.60010
_cell_length_c 10.45590
_cell_angle_alpha 108.09470
_cell_angle_beta  92.90860
_cell_angle_gamma 91.50130

_symmetry_space_group_name_	'P 1'
_symmetry_space_group_name_H-M	'P 1'

loop_
_symmetry_equiv_pos_as_xyz
  x,y,z

loop_
_atom_site_label
_atom_site_type_symbol
_atom_site_fract_x
_atom_site_fract_y
_atom_site_fract_z
_atom_site_charge
Ni	Ni	0.37715 0.47747 -0.04022 1.09200
Ni	Ni	0.37917 0.71021 0.11753 1.24100
C 	C 	0.42568 0.80071 -0.04142 0.26600
C 	C 	0.33110 0.56419 0.17166 0.37200
C 	C 	0.43592 0.57224 0.14595 0.37900
C 	C 	0.35459 0.85074 0.18646 0.24400
O 	O 	0.42802 0.49731 0.03138 -0.48300
O 	O 	0.39530 0.80205 0.88938 -0.24800
O 	O 	0.42435 0.76888 0.07338 -0.35800
O 	O 	0.35534 0.48907 0.11957 -0.46400
O 	O 	0.33627 0.65458 0.16330 -0.44000
O 	O 	0.41150 0.64254 0.19620 -0.43300
O 	O 	0.37598 0.60817 0.95733 -0.72400
O 	O 	0.34781 0.79046 0.06361 -0.36800
O 	O 	0.37827 0.81515 0.26112 -0.37100
H 	H 	0.35009 0.61374 0.90594 0.17800
H 	H 	0.39843 0.61522 0.89919 0.17000
Ni	Ni	0.89356 0.95297 0.67082 1.08800
Ni	Ni	0.86684 0.73065 0.65507 1.24000
C 	C 	0.93925 0.61639 0.61726 0.26200
C 	C 	0.81798 0.90067 0.70646 0.38400
C 	C 	0.90460 0.86812 0.87796 0.37400
C 	C 	0.82108 0.62072 0.59604 0.28000
O 	O 	0.89420 0.94992 0.84368 -0.47000
O 	O 	0.94635 0.62685 0.73612 -0.23300
O 	O 	0.90099 0.63156 0.56758 -0.35300
O 	O 	0.84003 0.95997 0.65641 -0.47500
O 	O 	0.83139 0.82251 0.73535 -0.43400
O 	O 	0.89983 0.77563 0.79880 -0.43500
O 	O 	0.89104 0.81797 0.58110 -0.71600
O 	O 	0.83162 0.67736 0.52291 -0.40600
O 	O 	0.84197 0.64041 0.70985 -0.38800
H 	H 	0.87786 0.80848 0.48849 0.17200
H 	H 	0.92004 0.79985 0.56714 0.15000
Ni	Ni	0.09394 0.02478 0.47063 1.09600
Ni	Ni	0.11972 0.22091 0.40163 1.23900
C 	C 	0.07913 0.38733 0.56435 0.30700
C 	C 	0.16980 0.06920 0.43281 0.39000
C 	C 	0.08117 0.05114 0.22366 0.31700
C 	C 	0.16745 0.32506 0.43481 0.24100
O 	O 	0.09621 -0.00997 0.28898 -0.44500
O 	O 	0.06063 0.35451 0.64154 -0.26600
O 	O 	0.08357 0.32390 0.43182 -0.35400
O 	O 	0.14754 0.02744 0.50387 -0.46900
O 	O 	0.15547 0.12371 0.36427 -0.43800
O 	O 	0.08877 0.14894 0.26065 -0.41200
O 	O 	0.09271 0.16161 0.50625 -0.71700
O 	O 	0.15236 0.29607 0.52958 -0.40900
O 	O 	0.14851 0.28583 0.31740 -0.37200
H 	H 	0.10253 0.19393 0.60398 0.18300
H 	H 	0.06314 0.17464 0.49838 0.16800
Ni	Ni	0.56930 0.51985 0.93338 1.09800
Ni	Ni	0.59218 0.30476 0.75107 1.23600
C 	C 	0.53650 0.16534 0.81312 0.27300
C 	C 	0.64457 0.48244 0.86750 0.33600
C 	C 	0.56599 0.45749 0.65426 0.33800
C 	C 	0.63094 0.18744 0.71478 0.23900
O 	O 	0.57400 0.53361 0.76722 -0.45200
O 	O 	0.55462 0.18093 -0.07807 -0.23400
O 	O 	0.55031 0.20749 0.71531 -0.35500
O 	O 	0.62251 0.52858 0.96804 -0.44600
O 	O 	0.63344 0.39737 0.77608 -0.41300
O 	O 	0.56572 0.36254 0.64637 -0.43000
O 	O 	0.56776 0.38302 -0.10422 -0.70900
O 	O 	0.62069 0.23633 0.83525 -0.37800
O 	O 	0.61636 0.22274 0.62173 -0.36800
H 	H 	0.57893 0.36831 -0.02055 0.19700
H 	H 	0.53801 0.36447 -0.11365 0.16100
C 	C 	0.29769 0.54855 0.25495 -0.20800
C 	C 	0.29444 0.43977 0.26949 -0.04800
C 	C 	0.26754 0.43960 0.38102 0.05200
C 	C 	0.22927 0.38937 0.35336 -0.06000
C 	C 	0.20514 0.38911 0.45954 -0.01600
C 	C 	0.21939 0.44073 0.59309 -0.09200
C 	C 	0.25769 0.49163 0.62201 0.14800
O 	O 	0.27402 0.54381 0.75359 -0.22500
C 	C 	0.25165 0.53939 0.86467 -0.02300
C 	C 	0.28140 0.48963 0.51518 -0.12200
H 	H 	0.26886 0.56455 0.20890 0.08000
H 	H 	0.30279 0.60751 0.35590 0.09200
H 	H 	0.32458 0.41533 0.29454 0.05400
H 	H 	0.28267 0.38365 0.17201 0.03600
H 	H 	0.21893 0.34837 0.25009 0.05800
H 	H 	0.20061 0.43936 0.67376 0.06600
H 	H 	0.26871 0.58358 0.95980 0.03200
H 	H 	0.24734 0.45788 0.86424 0.02300
H 	H 	0.22226 0.57562 0.86230 0.03700
H 	H 	0.31107 0.52743 0.53721 0.06700
C 	C 	0.77509 0.92634 0.73332 -0.21000
C 	C 	0.75804 0.99014 0.64639 -0.04200
C 	C 	0.71292 0.99349 0.64608 0.05500
C 	C 	0.69390 0.08783 0.69765 -0.06200
C 	C 	0.65207 0.09035 0.68084 -0.00200
C 	C 	0.62937 -0.00097 0.61510 -0.09400
C 	C 	0.64780 0.90376 0.56568 0.15700
O 	O 	0.62667 0.80966 0.49530 -0.20100
C 	C 	0.58384 0.80785 0.48983 -0.02400
C 	C 	0.68955 0.90236 0.58138 -0.11800
H 	H 	0.77301 0.96986 0.84170 0.09000
H 	H 	0.75722 0.85230 0.71091 0.09200
H 	H 	0.76604 0.95473 0.54032 0.04800
H 	H 	0.77219 0.06965 0.68295 0.03800
H 	H 	0.71159 0.15915 0.74452 0.05000
H 	H 	0.59746 0.00429 0.59952 0.06700
H 	H 	0.57184 0.72872 0.43410 0.04600
H 	H 	0.57214 0.86010 0.43502 0.03900
H 	H 	0.57313 0.82915 0.59307 0.03900
H 	H 	0.70395 0.82986 0.53925 0.07000
C 	C 	0.21384 0.05187 0.42917 -0.20700
C 	C 	0.22802 0.03424 0.28641 -0.05200
C 	C 	0.27295 0.03754 0.28762 0.04800
C 	C 	0.29292 0.94647 0.23288 -0.05000
C 	C 	0.33472 0.94829 0.23813 -0.00800
C 	C 	0.35698 1.04187 0.29571 -0.08000
C 	C 	0.33715 0.13565 0.34552 0.14300
O 	O 	0.35717 0.23387 0.39737 -0.21500
C 	C 	0.39971 0.24002 0.39040 -0.02100
C 	C 	0.29513 0.13198 0.34228 -0.11800
H 	H 	0.22091 -0.01551 0.46380 0.08500
H 	H 	0.22957 0.12220 0.50032 0.08200
H 	H 	0.21726 0.09480 0.24357 0.06100
H 	H 	0.21496 0.95852 0.21962 0.05100
H 	H 	0.27598 0.87344 0.18947 0.05700
H 	H 	0.38935 1.04037 0.29897 0.06600
H 	H 	0.41030 0.32257 0.42816 0.03100
H 	H 	0.40815 0.20769 0.28438 0.03700
H 	H 	0.41461 0.19908 0.45537 0.03000
H 	H 	0.27965 0.20327 0.38168 0.06900
C 	C 	0.78751 0.53932 0.55151 -0.15500
C 	C 	0.77753 0.48823 0.65973 -0.09600
C 	C 	0.74583 0.54330 0.75106 0.06700
C 	C 	0.71172 0.48721 0.76937 -0.05400
C 	C 	0.68226 0.53752 0.85462 -0.03800
C 	C 	0.68664 0.64508 0.91789 -0.07800
C 	C 	0.72000 0.70242 0.89770 0.15200
O 	O 	0.72437 0.81107 0.95097 -0.20500
C 	C 	0.68833 0.86693 0.96890 -0.02700
C 	C 	0.74998 0.65024 0.81877 -0.12800
H 	H 	0.79675 0.47880 0.46049 0.07100
H 	H 	0.76029 0.57400 0.52093 0.07200
H 	H 	0.80480 0.48270 -0.27793 0.08000
H 	H 	0.76673 0.40700 -0.39357 0.06100
H 	H 	0.70808 0.40456 0.71723 0.05700
H 	H 	0.66344 0.68420 0.98000 0.06500
H 	H 	0.66827 0.84122 0.87520 0.04800
H 	H 	0.67258 0.85775 1.05584 0.04500
H 	H 	0.69625 0.95050 0.99071 0.04800
H 	H 	0.77560 0.69497 0.80549 0.09500
C 	C 	0.47586 0.57765 0.22027 -0.20600
C 	C 	0.48589 0.47403 0.24131 -0.04200
C 	C 	0.52521 0.48410 0.32332 0.02500
C 	C 	0.52665 0.46640 0.44885 -0.02800
C 	C 	0.56286 0.48237 0.52767 -0.05500
C 	C 	0.59774 0.51589 0.48135 -0.05500
C 	C 	0.59708 0.53074 0.35363 0.12700
O 	O 	0.63071 0.56584 0.30077 -0.19000
C 	C 	0.66830 0.58319 0.37755 -0.02800
C 	C 	0.56081 0.51279 0.27507 -0.08600
H 	H 	0.47626 0.63926 0.31982 0.09000
H 	H 	0.49884 0.60061 0.16044 0.05200
H 	H 	0.48823 0.41385 0.14203 0.03300
H 	H 	0.46102 0.44905 0.29277 0.03900
H 	H 	0.49976 0.44071 0.48535 0.03400
H 	H 	0.62525 0.52777 0.54464 0.06200
H 	H 	0.69059 0.61523 0.32423 0.05200
H 	H 	0.67920 0.50919 0.38725 0.04500
H 	H 	0.66590 0.64084 0.47844 0.04900
H 	H 	0.56029 0.52383 0.17683 0.00100
C 	C 	0.91843 0.88412 1.02185 -0.21000
C 	C 	0.95813 0.83363 0.03649 -0.04600
C 	C 	-0.00607 0.89430 0.01299 0.05200
C 	C 	0.01906 -0.04804 0.12311 -0.05000
C 	C 	0.05437 0.00174 0.10439 -0.04700
C 	C 	0.06470 -0.00492 -0.02614 -0.07500
C 	C 	0.03987 0.93582 -0.13906 0.14700
O 	O 	0.04943 0.91978 -0.27356 -0.24300
C 	C 	0.09065 0.93186 -0.29831 0.01200
C 	C 	0.00423 0.88766 -0.11785 -0.12100
H 	H 	0.89491 0.84873 1.06737 0.08000
H 	H 	0.92109 0.96814 1.07942 0.07500
H 	H 	0.95771 0.75261 -0.03103 0.07200
H 	H 	0.96093 0.82841 0.14067 0.03000
H 	H 	1.01136 -0.04293 0.22449 0.01400
H 	H 	0.09228 0.03359 -0.03835 0.06300
H 	H 	0.09372 0.90503 0.59125 -0.04800
H 	H 	0.10960 0.88338 -0.25356 0.03500
H 	H 	0.10123 1.01449 0.74138 -0.00700
H 	H 	-0.01466 0.84159 -0.20408 0.06400
C 	C 	0.49773 0.10187 0.78062 -0.16100
C 	C 	0.50457 -0.01257 0.70572 -0.06600
C 	C 	0.50380 0.92255 0.79886 0.05900
C 	C 	0.46676 0.89060 0.83276 -0.06100
C 	C 	0.46486 0.83180 -0.07909 -0.01800
C 	C 	0.50062 0.80320 -0.02601 -0.07200
C 	C 	0.53832 0.83372 0.93948 0.12500
O 	O 	0.57539 0.80719 -0.01207 -0.19900
C 	C 	0.57541 0.76052 0.09295 0.00100
C 	C 	0.53942 0.89409 0.85251 -0.11000
H 	H 	0.47833 0.13367 0.71473 0.06500
H 	H 	0.48154 0.11143 0.87407 0.06600
H 	H 	0.53304 -0.02112 0.65413 0.04600
H 	H 	0.48041 -0.04276 0.62448 0.04500
H 	H 	0.43935 -0.08643 0.79208 0.05400
H 	H 	0.49870 0.75703 0.04116 0.05200
H 	H 	0.60686 0.74808 0.12160 0.03800
H 	H 	0.55897 0.68401 0.05821 -0.05300
H 	H 	0.56212 0.81238 0.18337 0.03700
H 	H 	0.56820 0.92031 0.82847 0.07500
C 	C 	0.09442 0.49864 0.60975 -0.17500
C 	C 	0.08374 0.55532 0.50735 -0.05800
C 	C 	0.03954 0.54628 0.46535 0.06200
C 	C 	0.01094 0.58552 0.56014 -0.05600
C 	C 	0.96993 0.57711 0.51922 -0.02600
C 	C 	0.95793 0.53179 0.38229 -0.09000
C 	C 	0.98635 0.49161 0.28631 0.15200
O 	O 	0.97642 0.44328 0.14785 -0.20200
C 	C 	0.93504 0.43137 0.10190 -0.00900
C 	C 	1.02690 0.49900 0.32960 -0.11800
H 	H 	0.12756 0.50067 0.62549 0.07500
H 	H 	0.08244 0.54043 0.70821 0.07900
H 	H 	0.10184 0.52407 0.41819 0.05300
H 	H 	0.09282 0.63874 0.55180 0.03800
H 	H 	0.02064 0.62310 0.66484 0.05500
H 	H 	0.92633 0.52725 0.35179 0.06900
H 	H 	0.93265 0.39035 0.99191 0.03200
H 	H 	0.92178 0.50828 0.11933 0.04000
H 	H 	0.91816 0.38388 0.15246 0.03500
H 	H 	1.04865 0.46757 0.25580 0.08200
