data_crystal

_cell_length_a 39.59510
_cell_length_b 22.70610
_cell_length_c 6.85130
_cell_angle_alpha 81.60440
_cell_angle_beta  89.34550
_cell_angle_gamma 92.10640

_symmetry_space_group_name_	'P 1'
_symmetry_space_group_name_H-M	'P 1'

loop_
_symmetry_equiv_pos_as_xyz
  x,y,z

loop_
_atom_site_label
_atom_site_type_symbol
_atom_site_fract_x
_atom_site_fract_y
_atom_site_fract_z
_atom_site_charge
C 	C 	0.31548 0.82680 0.12839 0.38500
C 	C 	0.42685 0.82875 0.11141 0.29700
Co	Co	0.32719 0.75287 0.85208 1.13900
O 	O 	0.41047 0.70647 0.23492 -0.32300
O 	O 	0.39625 0.82264 0.21751 -0.38100
O 	O 	0.30251 0.70468 0.05608 -0.38900
O 	O 	0.34638 0.68068 0.25998 -0.41200
O 	O 	0.36893 0.75822 -0.03600 -0.47300
O 	O 	0.39258 0.65421 -0.00751 -0.16800
O 	O 	0.43234 0.79790 -0.01570 -0.22700
C 	C 	0.31775 0.66834 0.19203 0.33400
C 	C 	0.41188 0.65855 0.12711 0.28200
O 	O 	0.33249 0.79265 0.25269 -0.47900
O 	O 	0.31464 0.82266 -0.06160 -0.43600
Co	Co	0.37075 0.75030 0.23375 1.24600
C 	C 	0.80532 0.71238 0.66699 0.32600
C 	C 	0.89049 0.63381 0.64941 0.32300
Co	Co	0.84860 0.78739 0.39087 1.17400
O 	O 	0.90788 0.77384 0.88760 -0.37000
O 	O 	0.89323 0.66076 0.82046 -0.36700
O 	O 	0.84865 0.85359 0.51961 -0.38700
O 	O 	0.84577 0.79947 0.83225 -0.43400
O 	O 	0.88012 0.75327 0.55874 -0.50200
O 	O 	0.94542 0.73017 0.70365 -0.19500
O 	O 	0.86585 0.64157 0.54645 -0.27100
C 	C 	0.84114 0.84677 0.71031 0.35700
C 	C 	0.93955 0.76970 0.79959 0.27300
O 	O 	0.82987 0.69179 0.77113 -0.43300
O 	O 	0.80849 0.75745 0.52235 -0.37000
Co	Co	0.86907 0.73155 0.82062 1.24200
C 	C 	0.14118 0.31870 0.41184 0.38800
C 	C 	0.05584 0.32064 0.26229 0.26600
Co	Co	0.12025 0.20561 0.58383 1.16600
O 	O 	0.07959 0.20301 0.00984 -0.38700
O 	O 	0.07748 0.31175 0.10768 -0.31300
O 	O 	0.16114 0.19498 0.45390 -0.41500
O 	O 	0.14175 0.19748 0.13995 -0.43500
O 	O 	0.09226 0.21636 0.37272 -0.48600
O 	O 	0.09338 0.11846 0.21375 -0.24500
O 	O 	0.04134 0.27876 0.36479 -0.17700
C 	C 	0.16284 0.18115 0.27343 0.34900
C 	C 	0.07746 0.14130 0.07348 0.29600
O 	O 	0.13878 0.30282 0.24061 -0.44900
O 	O 	0.12798 0.28703 0.57279 -0.46100
Co	Co	0.10956 0.25209 0.13337 1.24900
C 	C 	0.66691 0.17384 0.86485 0.37700
C 	C 	0.56962 0.19319 0.74185 0.27800
Co	Co	0.64537 0.23651 0.15196 1.15100
O 	O 	0.59196 0.32659 0.66009 -0.36200
O 	O 	0.59878 0.21161 0.62989 -0.36500
O 	O 	0.68308 0.27909 1.02508 -0.46000
O 	O 	0.65525 0.33099 0.77051 -0.46500
O 	O 	0.61297 0.25391 0.96590 -0.47400
O 	O 	0.60274 0.36896 0.93713 -0.25300
O 	O 	0.55365 0.22857 0.81938 -0.17600
C 	C 	0.67907 0.32680 0.89428 0.36500
C 	C 	0.58621 0.36800 0.78888 0.31500
O 	O 	0.66120 0.21900 0.73556 -0.47700
O 	O 	0.65522 0.16835 1.04806 -0.43500
Co	Co	0.62705 0.27222 0.70718 1.23700
C 	C 	0.31250 0.38197 0.37523 0.01000
C 	C 	0.31166 0.42668 0.20871 -0.06700
C 	C 	0.29259 0.47768 0.20017 0.26300
F 	F 	0.29556 0.51744 0.03175 -0.39700
C 	C 	0.26990 0.48805 0.35070 0.25500
F 	F 	0.26249 0.44347 0.50127 -0.42600
C 	C 	0.25208 0.54133 0.34244 -0.05900
C 	C 	0.21849 0.54051 0.45271 -0.05100
C 	C 	0.19647 0.48498 0.44088 0.05100
C 	C 	0.19288 0.44201 0.60963 -0.08300
C 	C 	0.17520 0.38758 0.60592 0.13500
C 	C 	0.17482 0.34225 0.79022 -0.21000
C 	C 	0.15956 0.37619 0.42901 -0.11000
C 	C 	0.16209 0.42043 0.26201 0.01300
C 	C 	0.18051 0.47438 0.26529 0.03800
C 	C 	0.18303 0.51955 0.08084 -0.18800
C 	C 	0.26668 0.59747 0.26164 0.29400
F 	F 	0.24603 0.64268 0.19938 -0.43100
C 	C 	0.30137 0.61090 0.27673 0.13300
F 	F 	0.32099 0.57191 0.38964 -0.37100
H 	H 	0.33845 0.37975 0.43473 0.06700
H 	H 	0.30442 0.33817 0.33403 0.06000
H 	H 	0.32746 0.42176 0.08239 0.11700
H 	H 	0.22445 0.54403 0.60891 0.07300
H 	H 	0.20379 0.58027 0.40009 0.07900
H 	H 	0.20536 0.45003 0.74371 0.07400
H 	H 	0.19055 0.35739 0.90794 0.08700
H 	H 	0.18502 0.29984 0.75686 0.09500
H 	H 	0.14864 0.33465 0.84996 0.07400
H 	H 	0.14967 0.41278 0.12736 0.07100
H 	H 	0.16876 0.50418 -0.04209 0.09500
H 	H 	0.17243 0.56214 0.10919 0.09900
H 	H 	0.20984 0.52738 0.03209 0.11200
C 	C 	0.84082 1.02643 0.47622 -0.03400
C 	C 	0.85238 1.03322 0.66628 -0.08500
C 	C 	0.83105 1.03229 0.83143 0.25700
F 	F 	0.84409 0.05640 0.98537 -0.39500
C 	C 	0.79665 1.01375 0.84488 0.24900
F 	F 	0.77787 0.03621 0.98142 -0.39800
C 	C 	0.78116 0.97235 0.73412 -0.07300
C 	C 	0.74422 0.97516 0.67480 -0.04100
C 	C 	0.72520 1.02712 0.72939 0.03000
C 	C 	0.72480 0.07961 0.59325 -0.07300
C 	C 	0.70612 0.12832 0.62983 0.11100
C 	C 	0.70632 0.18230 0.47259 -0.17800
C 	C 	0.68764 0.12492 0.81074 -0.11100
C 	C 	0.68865 0.07221 0.94744 0.00800
C 	C 	0.70664 0.02326 0.90831 0.09400
C 	C 	0.70559 0.96756 0.05886 -0.23700
C 	C 	0.79834 0.92394 0.67860 0.28100
F 	F 	0.78578 0.89790 0.52640 -0.41400
C 	C 	0.82505 0.89643 0.78440 0.11500
F 	F 	0.83229 0.90757 0.96912 -0.39800
H 	H 	0.84574 1.06852 0.37381 0.08900
H 	H 	0.85409 0.98977 0.42089 0.09500
H 	H 	0.87866 1.04699 0.67895 0.09400
H 	H 	0.74300 0.97667 0.51197 0.08500
H 	H 	0.73088 0.93254 0.73635 0.08500
H 	H 	0.73893 1.08201 0.45561 0.06700
H 	H 	0.72233 0.17664 0.34290 0.06900
H 	H 	0.71643 0.22216 0.53226 0.07000
H 	H 	0.68030 0.18973 0.41861 0.01000
H 	H 	0.67476 0.06858 0.08606 0.05100
H 	H 	0.69157 -0.02619 0.19526 0.10600
H 	H 	0.69261 0.93050 -0.00322 0.10500
H 	H 	0.73157 -0.04508 0.10162 0.14300
C 	C 	0.26080 0.16399 0.50385 -0.03700
C 	C 	0.26950 0.18412 0.30404 -0.08600
C 	C 	0.27060 0.14674 0.15865 0.26500
F 	F 	0.28917 0.16728 -0.00649 -0.38500
C 	C 	0.25737 0.08771 0.17785 0.25300
F 	F 	0.27235 0.05222 0.06227 -0.39400
C 	C 	0.22994 0.06418 0.30440 -0.07200
C 	C 	0.22842 0.99995 0.40718 -0.04800
C 	C 	0.25167 0.95739 0.32654 0.05100
C 	C 	0.28091 0.94077 0.43100 -0.09500
C 	C 	0.30256 0.89911 0.36995 0.12100
C 	C 	0.33436 0.88576 0.48440 -0.19400
C 	C 	0.29448 0.87255 0.20035 -0.13200
C 	C 	0.26557 0.89049 0.09339 0.04700
C 	C 	0.24405 0.93233 0.15419 0.07400
C 	C 	0.21337 0.94960 1.03338 -0.22800
C 	C 	0.20286 0.09905 0.34886 0.27700
F 	F 	0.18435 0.08071 0.51672 -0.44700
C 	C 	0.19145 0.14732 0.21849 0.10200
F 	F 	0.20247 0.15714 0.02754 -0.38700
H 	H 	0.28310 0.16895 0.59744 0.09700
H 	H 	0.23982 0.19009 0.55106 0.08500
H 	H 	0.28008 0.22911 0.26777 0.10100
H 	H 	0.23372 1.00105 0.56568 0.07200
H 	H 	0.20212 0.98121 0.40496 0.07500
H 	H 	0.28693 0.96074 0.56135 0.07100
H 	H 	0.33749 0.91370 0.60370 0.07800
H 	H 	0.35673 0.89499 0.38416 0.09000
H 	H 	0.33360 0.83857 0.55494 0.02300
H 	H 	0.25934 0.87094 0.96255 0.01400
H 	H 	0.21227 0.92769 0.89865 0.08900
H 	H 	0.18998 0.93612 1.12180 0.08400
H 	H 	0.21398 -0.00154 0.98508 0.12600
C 	C 	0.84115 0.54624 0.33416 0.00600
C 	C 	0.81428 0.58597 0.31207 -0.08700
C 	C 	0.79269 0.59647 0.46565 0.23000
F 	F 	0.76674 0.63256 0.41329 -0.41100
C 	C 	0.79504 0.56816 0.66213 0.23300
F 	F 	0.81574 0.52155 0.70061 -0.44000
C 	C 	0.77436 0.58052 0.81998 -0.07400
C 	C 	0.76715 0.52982 0.98845 -0.05400
C 	C 	0.74426 0.47973 0.93371 0.05100
C 	C 	0.75854 0.42511 0.91034 -0.10500
C 	C 	0.73813 0.37439 0.88996 0.12700
C 	C 	0.75441 0.31726 0.86043 -0.21900
C 	C 	0.70267 0.37842 0.89339 -0.13900
C 	C 	0.68853 0.43313 0.90667 -0.00200
C 	C 	0.70861 0.48354 0.92886 0.03000
C 	C 	0.69103 0.53952 0.95466 -0.19200
C 	C 	0.76101 0.63689 0.83621 0.28700
F 	F 	0.73672 0.64003 0.97521 -0.39600
C 	C 	0.77048 0.69172 0.72498 0.15500
F 	F 	0.74722 0.73457 0.70894 -0.33500
H 	H 	0.86418 0.56788 0.25710 0.04300
H 	H 	0.83427 0.50514 0.27185 0.04900
H 	H 	0.81026 0.60996 0.16635 0.08400
H 	H 	0.79162 0.51174 1.04042 0.07800
H 	H 	0.75607 0.54576 1.11975 0.09500
H 	H 	0.78576 0.42167 0.91319 0.09000
H 	H 	0.78230 0.32340 0.84319 0.09000
H 	H 	0.74459 0.30175 0.72472 0.08400
H 	H 	0.74881 0.28233 0.98882 0.09800
H 	H 	0.66131 0.43554 0.90898 0.04600
H 	H 	0.66314 0.53351 0.95020 0.08200
H 	H 	0.69711 0.55278 1.10021 0.12300
H 	H 	0.69844 0.57503 0.83173 0.13100
C 	C 	0.52454 0.65163 0.24542 -0.05700
C 	C 	0.53600 0.60240 0.16262 -0.08800
C 	C 	0.51953 0.54611 0.17449 0.23200
F 	F 	0.53547 0.50567 0.08320 -0.40900
C 	C 	0.48964 0.52557 0.27962 0.26300
F 	F 	0.48084 0.46697 0.28553 -0.39600
C 	C 	0.47387 0.55566 0.41830 -0.08500
C 	C 	0.47869 0.53523 0.63711 -0.05300
C 	C 	0.50604 0.49018 0.67989 0.06200
C 	C 	0.53987 0.51116 0.65943 -0.06900
C 	C 	0.56650 0.47227 0.69423 0.13700
C 	C 	0.60227 0.49735 0.67886 -0.21500
C 	C 	0.55921 0.41065 0.74579 -0.08100
C 	C 	0.52552 0.38923 0.76202 0.00600
C 	C 	0.49874 0.42835 0.73309 0.08200
C 	C 	0.46294 0.40338 0.76092 -0.20100
C 	C 	0.45015 0.59974 0.36379 0.27100
F 	F 	0.43754 0.62836 0.50817 -0.42000
C 	C 	0.43730 0.61316 0.17275 0.14600
F 	F 	0.44536 0.58058 0.02895 -0.38100
H 	H 	0.52210 0.64202 0.40841 0.05300
H 	H 	0.50114 0.66844 0.17404 0.06300
H 	H 	0.55938 0.60963 0.07752 0.08900
H 	H 	0.48576 0.57462 0.70935 0.10200
H 	H 	0.45404 0.51771 0.70397 0.10900
H 	H 	0.54541 0.55849 0.62039 0.06400
H 	H 	0.60349 0.54564 0.61981 0.08900
H 	H 	0.61753 0.47395 0.57935 0.08900
H 	H 	0.61327 0.49170 0.82793 0.09700
H 	H 	0.52016 0.34183 0.80240 0.07600
H 	H 	0.46197 0.35402 0.79609 0.10400
H 	H 	0.45061 0.42117 0.88525 0.11700
H 	H 	0.44846 0.41570 0.62423 0.12400
C 	C 	0.93043 0.87687 1.22288 -0.02500
C 	C 	0.95945 0.84383 0.27578 -0.09800
C 	C 	0.99278 0.86113 0.21565 0.27600
F 	F 	1.01747 0.83877 0.33759 -0.36200
C 	C 	1.00293 0.90199 1.04861 0.22700
F 	F 	0.03457 0.92654 0.05402 -0.37700
C 	C 	0.98360 0.91591 0.87581 -0.06900
C 	C 	-0.01250 -0.02411 0.74226 -0.04300
C 	C 	0.01017 0.02287 0.81781 0.06100
C 	C 	0.04487 0.02578 0.76837 -0.08600
C 	C 	0.06748 0.06441 -0.15090 0.13400
C 	C 	0.10479 0.06357 -0.19640 -0.19500
C 	C 	0.05484 0.10321 -0.02701 -0.11000
C 	C 	0.02010 0.10358 0.01103 0.02000
C 	C 	-0.00244 0.06353 0.93664 0.01700
C 	C 	0.96052 0.06482 0.98727 -0.17700
C 	C 	0.96077 0.87368 0.81241 0.26300
F 	F 	0.93333 0.89355 0.70856 -0.43900
C 	C 	0.96661 0.81255 0.83514 0.13600
F 	F 	0.99790 0.79219 0.87796 -0.36400
H 	H 	0.91368 0.85358 1.12781 0.05300
H 	H 	0.93650 0.92340 1.15629 0.05900
H 	H 	0.95602 0.80774 0.39597 0.11900
H 	H 	-0.00275 0.96784 0.59589 0.08000
H 	H 	0.96209 -0.00614 0.71316 0.07600
H 	H 	0.05448 0.99581 0.67321 0.09200
H 	H 	0.11041 0.03106 -0.29762 0.12300
H 	H 	0.11886 0.05113 -0.05814 0.11700
H 	H 	0.11404 0.10833 -0.26767 0.02300
H 	H 	0.01070 0.13430 0.10414 0.05400
H 	H 	0.95547 0.09840 1.08567 0.08700
H 	H 	0.94587 0.07645 0.85085 0.08800
H 	H 	0.95153 0.02079 0.06484 0.09200
C 	C 	0.51982 -0.10896 0.67346 -0.05400
C 	C 	0.50251 -0.05502 0.65223 -0.06900
C 	C 	0.51346 -0.00290 0.72294 0.22200
F 	F 	0.49297 0.04414 0.68990 -0.42800
C 	C 	0.54120 0.00067 0.84709 0.26600
F 	F 	0.56134 0.95349 0.88875 -0.44200
C 	C 	0.53919 0.03895 -0.01104 -0.05600
C 	C 	0.53009 0.01054 0.19783 -0.04600
C 	C 	0.50180 0.96350 0.19745 0.02300
C 	C 	0.51044 0.90363 0.21347 -0.09100
C 	C 	0.48627 0.85863 0.19198 0.11200
C 	C 	0.49693 0.79503 0.21346 -0.22100
C 	C 	0.45256 0.87384 0.15145 -0.09600
C 	C 	0.44335 0.93309 0.14625 -0.02500
C 	C 	0.46766 -0.02166 0.16748 0.06800
C 	C 	0.45690 0.04162 0.15813 -0.21200
C 	C 	0.54419 0.10129 -0.05632 0.28100
F 	F 	0.53836 0.13477 0.08878 -0.41400
C 	C 	0.55880 0.12986 0.76525 0.15500
F 	F 	0.56899 0.09816 0.62334 -0.38700
H 	H 	0.52051 -0.12978 0.82965 0.07700
H 	H 	0.54556 -0.10195 0.60622 0.08500
H 	H 	0.47833 -0.05490 0.58040 0.08100
H 	H 	0.55312 0.99008 0.26461 0.08400
H 	H 	0.52273 0.04361 0.29311 0.11400
H 	H 	0.53649 0.89213 0.23908 0.08200
H 	H 	0.52390 0.79111 0.25449 0.08800
H 	H 	0.49375 0.77749 0.07170 0.10200
H 	H 	0.48141 0.76720 0.33065 0.10100
H 	H 	0.41725 0.94424 0.11970 0.05800
H 	H 	0.42941 0.04540 0.13108 0.10600
H 	H 	0.46239 0.05782 0.30010 0.12300
H 	H 	0.47068 0.07080 0.03688 0.13900
C 	C 	0.08959 0.59771 0.36430 0.01900
C 	C 	0.09036 0.54183 0.48556 -0.07500
C 	C 	0.06508 0.49700 0.48897 0.26400
F 	F 	0.07062 0.44443 0.60429 -0.41300
C 	C 	0.03450 0.50440 0.38589 0.25100
F 	F 	0.02625 0.55995 0.30296 -0.41200
C 	C 	0.01052 0.45709 0.37863 -0.05400
C 	C 	0.97471 0.47109 0.31748 -0.05200
C 	C 	0.95838 0.51700 0.42416 0.05900
C 	C 	0.95163 0.57214 0.31372 -0.08900
C 	C 	0.93141 0.61277 0.39005 0.13500
C 	C 	0.92427 0.67054 0.26136 -0.21800
C 	C 	0.91759 0.59826 0.58292 -0.10000
C 	C 	0.92643 0.54538 0.70030 0.00500
C 	C 	0.94669 0.50428 0.62257 0.03400
C 	C 	0.95430 0.44650 0.74914 -0.18500
C 	C 	0.01961 0.39740 0.38351 0.28500
F 	F 	0.99602 0.35351 0.44637 -0.42600
C 	C 	0.04881 0.38242 0.28595 0.16300
F 	F 	0.06914 0.42582 0.18240 -0.38400
H 	H 	0.11154 0.60336 0.26022 0.06000
H 	H 	0.09004 0.63404 0.45648 0.07400
H 	H 	0.11246 0.53246 0.57501 0.08800
H 	H 	0.97584 0.48685 0.15602 0.07400
H 	H 	0.95775 0.43055 0.33405 0.07900
H 	H 	0.96125 0.58265 0.16345 0.09800
H 	H 	0.93913 0.67590 0.12126 0.11300
H 	H 	0.93124 0.70872 0.33857 0.10800
H 	H 	0.89711 0.67194 0.22368 0.06200
H 	H 	0.91584 0.53462 0.84838 0.04800
H 	H 	0.94308 0.44367 0.89963 0.08300
H 	H 	0.94375 0.40835 0.68199 0.10400
H 	H 	0.98205 0.44275 0.76366 0.11400
