data_crystal

_audit_creation_method 'AiiDA-DDEC plugin'

_cell_length_a        26.90697
_cell_length_b        26.82953
_cell_length_c         7.02687

_cell_angle_alpha     89.95711
_cell_angle_beta     89.78891
_cell_angle_gamma     120.01692

_symmetry_space_group_name_Hall 'P 1'
_symmetry_space_group_name_H-M  'P 1'

loop_
_symmetry_equiv_pos_as_xyz
 'x,y,z'

loop_
_atom_site_label
_atom_site_type_symbol
_atom_site_fract_x
_atom_site_fract_y
_atom_site_fract_z
_atom_site_charge
Cu         Cu      0.32479   0.21261   0.06349   0.92188
Cu         Cu      0.78887   0.11141   0.06516   0.91965
Cu         Cu      0.88806   0.67952   0.07751   0.91850
Cu         Cu      0.98515   0.54269   0.41048   0.91776
Cu         Cu      0.45619   0.44514   0.40270   0.91870
Cu         Cu      0.55517   0.01038   0.40621   0.92110
Cu         Cu      0.65651   0.87755   0.73426   0.91938
Cu         Cu      0.12037   0.77766   0.74686   0.91519
Cu         Cu      0.22039   0.34067   0.73061   0.92332
Cu         Cu      0.67997   0.79006   0.93181   0.91610
Cu         Cu      0.20767   0.89088   0.93536   0.92085
Cu         Cu      0.10777   0.31746   0.91958   0.91878
Cu         Cu      0.34729   0.12454   0.25968   0.91789
Cu         Cu      0.87511   0.22212   0.26102   0.91773
Cu         Cu      0.77665   0.65409   0.26988   0.91997
Cu         Cu      0.01029   0.45534   0.60063   0.92125
Cu         Cu      0.54238   0.55695   0.60071   0.91618
Cu         Cu      0.44301   0.98587   0.60207   0.91490
H          H       0.46162   0.16101   0.04985   0.13297
H          H       0.84051   0.30035   0.04803   0.13234
H          H       0.69984   0.54240   0.04772   0.13300
H          H       0.12152   0.48934   0.38138   0.13459
H          H       0.50710   0.63434   0.39251   0.13477
H          H       0.36695   0.87280   0.39867   0.13445
H          H       0.79144   0.82380   0.71157   0.13390
H          H       0.16913   0.96610   0.72634   0.13330
H          H       0.03066   0.20803   0.69357   0.13355
H          H       0.54430   0.84360   0.95237   0.13425
H          H       0.15476   0.70102   0.96639   0.13488
H          H       0.29755   0.45263   0.94433   0.13430
H          H       0.20816   0.17169   0.25825   0.13292
H          H       0.82568   0.03354   0.26835   0.13389
H          H       0.96483   0.79314   0.29077   0.13379
H          H       0.87520   0.50915   0.63596   0.13424
H          H       0.49268   0.36866   0.61633   0.13484
H          H       0.63173   0.12428   0.61542   0.13365
H          H       0.53500   0.18479   0.79912   0.09715
H          H       0.81696   0.35000   0.79777   0.09790
H          H       0.65277   0.46940   0.79572   0.09721
H          H       0.19240   0.51118   0.12445   0.09823
H          H       0.48571   0.68533   0.14167   0.09787
H          H       0.31708   0.79807   0.15406   0.09946
H          H       0.86328   0.84584   0.45692   0.09682
H          H       0.14484   0.01473   0.47466   0.09533
H          H       0.98190   0.13876   0.43297   0.09637
H          H       0.47261   0.82189   0.20720   0.09536
H          H       0.17607   0.65203   0.22444   0.09906
H          H       0.34712   0.52427   0.19837   0.09732
H          H       0.13206   0.14582   0.50048   0.09927
H          H       0.85249   0.98429   0.51008   0.09755
H          H       0.01279   0.86570   0.54289   0.09667
H          H       0.80263   0.48403   0.89013   0.09874
H          H       0.51843   0.31989   0.86352   0.09725
H          H       0.68123   0.19697   0.86697   0.09744
H          H       0.53023   0.23012   0.49305   0.11403
H          H       0.77091   0.29927   0.49409   0.11486
H          H       0.70603   0.47457   0.49601   0.11457
H          H       0.18727   0.55800   0.82198   0.11526
H          H       0.44328   0.63673   0.83179   0.11693
H          H       0.36659   0.80183   0.84698   0.11471
H          H       0.85824   0.89161   0.15201   0.11573
H          H       0.10061   0.96392   0.16967   0.11490
H          H       0.03473   0.14539   0.13093   0.11593
H          H       0.47875   0.77830   0.51489   0.11602
H          H       0.22160   0.70423   0.52695   0.11574
H          H       0.29589   0.51919   0.50244   0.11550
H          H       0.13658   0.10299   0.81237   0.11464
H          H       0.89773   0.03333   0.81643   0.11504
H          H       0.96151   0.85875   0.84883   0.11453
H          H       0.80753   0.43569   0.18943   0.11528
H          H       0.56469   0.37070   0.16687   0.11570
H          H       0.63091   0.19111   0.17380   0.11512
H          H       0.45161   0.25300   0.44845   0.11472
H          H       0.74580   0.19673   0.45363   0.11609
H          H       0.80824   0.55292   0.46095   0.11687
H          H       0.11069   0.58437   0.78884   0.11620
H          H       0.41855   0.53440   0.78713   0.11411
H          H       0.46803   0.88035   0.79710   0.11474
H          H       0.78161   0.91762   0.11446   0.11525
H          H       0.07774   0.86198   0.12928   0.11472
H          H       0.13844   0.22036   0.10340   0.11549
H          H       0.55517   0.75188   0.55293   0.11448
H          H       0.24845   0.80755   0.55739   0.11535
H          H       0.19278   0.44324   0.53891   0.11588
H          H       0.21540   0.08083   0.86590   0.11579
H          H       0.91948   0.13466   0.86722   0.11558
H          H       0.85985   0.77941   0.88910   0.11495
H          H       0.88505   0.41070   0.22152   0.11633
H          H       0.58813   0.47267   0.20941   0.11597
H          H       0.52880   0.11324   0.21610   0.11488
H          H       0.37507   0.25683   0.53789   0.10807
H          H       0.74124   0.11599   0.54442   0.10874
H          H       0.88763   0.62875   0.55715   0.10909
H          H       0.03664   0.59082   0.88794   0.10957
H          H       0.41149   0.45228   0.87906   0.10922
H          H       0.54900   0.95823   0.88301   0.10888
H          H       0.70812   0.92560   0.21188   0.10935
H          H       0.07286   0.78138   0.22518   0.10904
H          H       0.21918   0.29253   0.20597   0.10781
H          H       0.62814   0.74331   0.45504   0.10935
H          H       0.25638   0.88858   0.45612   0.10943
H          H       0.11124   0.37002   0.44073   0.10923
H          H       0.29282   0.07694   0.78102   0.10906
H          H       0.92237   0.21528   0.78150   0.10857
H          H       0.77972   0.70445   0.79301   0.10914
H          H       0.95996   0.40583   0.12235   0.10821
H          H       0.59257   0.55323   0.11846   0.10877
H          H       0.44815   0.03830   0.12379   0.10923
H          H       0.26745   0.23327   0.63428   0.13062
H          H       0.76485   0.03134   0.63998   0.13145
H          H       0.97204   0.73500   0.65968   0.13149
H          H       0.93446   0.57384   0.98219   0.13106
H          H       0.43080   0.36697   0.96897   0.13080
H          H       0.63396   0.06265   0.97158   0.13069
H          H       0.60508   0.90920   0.30867   0.13055
H          H       0.08991   0.69566   0.31850   0.13075
H          H       0.30536   0.39617   0.30759   0.12970
H          H       0.73075   0.75927   0.36011   0.13111
H          H       0.23497   0.97327   0.35669   0.13237
H          H       0.02521   0.26869   0.35101   0.13038
H          H       0.39987   0.09736   0.68603   0.13197
H          H       0.90227   0.30042   0.69379   0.13061
H          H       0.69405   0.60107   0.69794   0.13193
H          H       0.06429   0.42472   0.01863   0.13032
H          H       0.57244   0.63927   0.02439   0.13121
H          H       0.36264   0.93117   0.02582   0.13114
H          H       0.32068   0.30453   0.69474   0.12696
H          H       0.69418   0.01447   0.70399   0.12635
H          H       0.98741   0.68020   0.72537   0.12513
H          H       0.98797   0.64285   0.06258   0.12596
H          H       0.36057   0.34977   0.04053   0.13013
H          H       0.65089   0.00962   0.04565   0.12851
H          H       0.65939   0.97817   0.38597   0.12810
H          H       0.02082   0.68017   0.39776   0.12628
H          H       0.31941   0.34097   0.37960   0.12710
H          H       0.67627   0.69017   0.28425   0.12744
H          H       0.30507   0.98872   0.29164   0.12467
H          H       0.01051   0.32214   0.26524   0.12581
H          H       0.34442   0.02694   0.62552   0.12838
H          H       0.97219   0.31704   0.62030   0.12716
H          H       0.67917   0.65545   0.62158   0.12592
H          H       0.00917   0.35524   0.94818   0.12494
H          H       0.64198   0.65433   0.95226   0.12516
H          H       0.34763   0.98702   0.97229   0.12725
C          C       0.41414   0.22269   0.72504  -0.08839
C          C       0.77712   0.19009   0.72810  -0.08757
C          C       0.81235   0.58997   0.73549  -0.08912
C          C       0.07467   0.55395   0.06704  -0.08714
C          C       0.44654   0.52590   0.06557  -0.08643
C          C       0.47547   0.91938   0.07074  -0.08610
C          C       0.74505   0.88782   0.39257  -0.08712
C          C       0.10835   0.85594   0.40577  -0.08834
C          C       0.14359   0.25506   0.38283  -0.08833
C          C       0.59121   0.78078   0.27375  -0.08734
C          C       0.21902   0.81329   0.27860  -0.08732
C          C       0.18638   0.40683   0.26148  -0.08528
C          C       0.25519   0.11234   0.59265  -0.08703
C          C       0.88712   0.14177   0.59563  -0.08767
C          C       0.85433   0.74329   0.61185  -0.08683
C          C       0.92208   0.44339   0.94620  -0.08767
C          C       0.55581   0.47888   0.93624  -0.08897
C          C       0.52202   0.07644   0.93909  -0.08678
C          C       0.41614   0.19548   0.89853   0.33104
C          C       0.80531   0.21980   0.89933   0.33060
C          C       0.78140   0.58819   0.90453   0.33094
C          C       0.07653   0.52570   0.23799   0.33053
C          C       0.47305   0.55454   0.23992   0.32867
C          C       0.44656   0.91804   0.24421   0.32817
C          C       0.74659   0.85958   0.56421   0.33092
C          C       0.13586   0.88579   0.57721   0.33022
C          C       0.11277   0.25269   0.55289   0.33163
C          C       0.58962   0.80860   0.10131   0.33156
C          C       0.19112   0.78283   0.10815   0.33125
C          C       0.21641   0.40807   0.09087   0.33055
C          C       0.25459   0.14019   0.41906   0.32916
C          C       0.85873   0.11282   0.42406   0.33000
C          C       0.88439   0.74594   0.43982   0.33124
C          C       0.92036   0.47262   0.77747   0.33042
C          C       0.52701   0.44898   0.76594   0.32995
C          C       0.55153   0.07833   0.76643   0.32916
C          C       0.46064   0.18240   0.91977  -0.23242
C          C       0.81875   0.27767   0.91928  -0.23334
C          C       0.72357   0.54365   0.92073  -0.23445
C          C       0.12019   0.51121   0.25316  -0.23524
C          C       0.48647   0.61236   0.26167  -0.23291
C          C       0.38913   0.87336   0.26860  -0.23222
C          C       0.79039   0.84539   0.58213  -0.23395
C          C       0.14815   0.94330   0.59698  -0.23434
C          C       0.05422   0.20970   0.56560  -0.23502
C          C       0.54561   0.82248   0.08252  -0.23423
C          C       0.17637   0.72439   0.09434  -0.23468
C          C       0.27461   0.45169   0.07296  -0.23358
C          C       0.20877   0.15090   0.39008  -0.23111
C          C       0.84732   0.05579   0.39774  -0.23451
C          C       0.94183   0.79113   0.42037  -0.23403
C          C       0.87631   0.48658   0.76279  -0.23656
C          C       0.51461   0.39146   0.74474  -0.23557
C          C       0.60918   0.12298   0.74546  -0.23373
C          C       0.50128   0.19537   0.77676  -0.03981
C          C       0.80580   0.30536   0.77665  -0.03817
C          C       0.69735   0.50311   0.77693  -0.03986
C          C       0.15961   0.52329   0.10653  -0.03896
C          C       0.47498   0.64091   0.11819  -0.03849
C          C       0.36126   0.83193   0.12870  -0.04048
C          C       0.83024   0.85751   0.43704  -0.03873
C          C       0.13489   0.97047   0.45339  -0.03914
C          C       0.02705   0.17125   0.41724  -0.03786
C          C       0.50596   0.81073   0.22801  -0.03896
C          C       0.18805   0.69705   0.24149  -0.03929
C          C       0.30225   0.49138   0.21787  -0.03911
C          C       0.16664   0.13685   0.52859  -0.04019
C          C       0.86194   0.02820   0.53608  -0.03912
C          C       0.96863   0.83136   0.56446  -0.04073
C          C       0.83605   0.47277   0.90783  -0.03849
C          C       0.52874   0.36424   0.88578  -0.03757
C          C       0.63680   0.16326   0.88887  -0.03972
C          C       0.49876   0.22078   0.60497  -0.13415
C          C       0.77985   0.27705   0.60646  -0.13294
C          C       0.72701   0.50577   0.60899  -0.13374
C          C       0.15689   0.54949   0.93688  -0.13492
C          C       0.45093   0.61373   0.94471  -0.13407
C          C       0.38888   0.83389   0.95658  -0.13397
C          C       0.82763   0.88322   0.26608  -0.13403
C          C       0.10992   0.94208   0.28234  -0.13668
C          C       0.05651   0.17463   0.24806  -0.13459
C          C       0.50900   0.78592   0.40034  -0.13369
C          C       0.21374   0.72617   0.41090  -0.13478
C          C       0.27368   0.48882   0.38837  -0.13486
C          C       0.16883   0.11249   0.70311  -0.13436
C          C       0.88748   0.05559   0.70784  -0.13407
C          C       0.94001   0.82770   0.73588  -0.13481
C          C       0.83856   0.44564   0.07552  -0.13451
C          C       0.55482   0.39259   0.05580  -0.13334
C          C       0.60872   0.16027   0.06091  -0.13304
C          C       0.45524   0.23361   0.58042  -0.10820
C          C       0.76605   0.22020   0.58384  -0.10903
C          C       0.78371   0.54913   0.58949  -0.10672
C          C       0.11450   0.56414   0.91856  -0.10875
C          C       0.43732   0.55701   0.92001  -0.11226
C          C       0.44515   0.87753   0.92889  -0.10999
C          C       0.78515   0.89768   0.24531  -0.11059
C          C       0.09727   0.88558   0.25988  -0.10644
C          C       0.11400   0.21631   0.23252  -0.11155
C          C       0.55144   0.77146   0.42154  -0.11012
C          C       0.22855   0.78346   0.42784  -0.10942
C          C       0.21650   0.44672   0.40859  -0.10869
C          C       0.21274   0.10051   0.73322  -0.10521
C          C       0.89951   0.11169   0.73613  -0.10640
C          C       0.88365   0.78377   0.75817  -0.10792
C          C       0.88150   0.43170   0.09342  -0.10836
C          C       0.56776   0.44914   0.07948  -0.10640
C          C       0.55211   0.11705   0.08443  -0.10801
C          C       0.37298   0.24062   0.68322   0.12298
C          C       0.75842   0.13060   0.68804   0.12346
C          C       0.87199   0.63053   0.70014   0.12481
C          C       0.03490   0.57392   0.03182   0.12228
C          C       0.42753   0.46643   0.02425   0.12020
C          C       0.53471   0.96011   0.02832   0.11988
C          C       0.70581   0.90847   0.35582   0.12194
C          C       0.08935   0.79629   0.36920   0.11993
C          C       0.20373   0.29433   0.34926   0.12372
C          C       0.63038   0.76015   0.31075   0.12082
C          C       0.23887   0.87325   0.31327   0.12193
C          C       0.12638   0.36776   0.29720   0.12058
C          C       0.29576   0.09378   0.63622   0.12186
C          C       0.90563   0.20105   0.63723   0.12189
C          C       0.79474   0.70273   0.64892   0.12263
C          C       0.96200   0.42342   0.97958   0.12428
C          C       0.57506   0.53848   0.97524   0.12169
C          C       0.46259   0.03604   0.97915   0.12057
C          C       0.29664   0.26007   0.74811  -0.20560
C          C       0.73861   0.03455   0.75484  -0.20697
C          C       0.96742   0.70496   0.77450  -0.21089
C          C       0.96212   0.59729   0.10344  -0.20774
C          C       0.40541   0.36972   0.08769  -0.20875
C          C       0.63093   0.03478   0.09142  -0.20875
C          C       0.63338   0.93276   0.42857  -0.20769
C          C       0.06610   0.69976   0.43957  -0.21039
C          C       0.30005   0.36672   0.42513  -0.20758
C          C       0.70242   0.73546   0.24056  -0.20955
C          C       0.26064   0.96934   0.24131  -0.20786
C          C       0.02987   0.29583   0.22709  -0.21047
C          C       0.37004   0.07131   0.57231  -0.20725
C          C       0.92729   0.29744   0.57446  -0.20837
C          C       0.69855   0.62959   0.57824  -0.20778
C          C       0.03489   0.40032   0.90204  -0.20779
C          C       0.59710   0.63493   0.90646  -0.20851
C          C       0.36623   0.96186   0.91462  -0.20293
C          C       0.26089   0.25830   0.91966   0.60502
C          C       0.74069   0.00081   0.92640   0.60322
C          C      -0.00032   0.74004   0.94793   0.60314
C          C       0.92387   0.59221   0.27099   0.60364
C          C       0.40918   0.33550   0.25443   0.60540
C          C       0.66489   0.07284   0.25793   0.60373
C          C       0.59612   0.92835   0.59890   0.60582
C          C       0.07055   0.66636   0.60762   0.60421
C          C       0.33231   0.40259   0.59773   0.60283
C          C       0.73971   0.73916   0.07189   0.60325
C          C       0.25865   0.00276   0.06870   0.60552
C          C       0.99667   0.25689   0.06154   0.60324
C          C       0.40538   0.07199   0.40103   0.60420
C          C       0.92407   0.33207   0.40831   0.60573
C          C       0.66556   0.59268   0.40871   0.60640
C          C       0.07034   0.40331   0.72826   0.60446
C          C       0.59412   0.66844   0.73600   0.60370
C          C       0.33180   0.92736   0.74285   0.60382
N          N       0.33577   0.23978   0.80296  -0.28618
N          N       0.75976   0.09442   0.80750  -0.28293
N          N       0.90726   0.66687   0.82323  -0.28593
N          N      -0.00085   0.57428   0.15523  -0.28425
N          N       0.42702   0.42942   0.14424  -0.28368
N          N       0.57133   0.99675   0.14794  -0.28346
N          N       0.67016   0.90923   0.47882  -0.28560
N          N       0.08894   0.75995   0.49181  -0.28563
N          N       0.23958   0.32950   0.47361  -0.28610
N          N       0.66593   0.75906   0.18810  -0.28546
N          N       0.23823   0.90910   0.19083  -0.28649
N          N       0.09006   0.33224   0.17446  -0.28449
N          N       0.33295   0.09411   0.51752  -0.28431
N          N       0.90533   0.23779   0.51798  -0.28267
N          N       0.75871   0.66685   0.52640  -0.28527
N          N       0.99778   0.42365   0.85508  -0.28614
N          N       0.57429   0.57474   0.85489  -0.28548
N          N       0.42610  -0.00058   0.85913  -0.28686
O          O       0.37718   0.18173   0.03683  -0.58218
O          O       0.81990   0.19488   0.03609  -0.58127
O          O       0.80518   0.62754   0.04213  -0.58121
O          O       0.03829   0.51248   0.37886  -0.58329
O          O       0.48551   0.52856   0.37912  -0.58261
O          O       0.47188   0.95774   0.37985  -0.58239
O          O       0.70777   0.84561   0.70337  -0.58063
O          O       0.15047   0.86111   0.71455  -0.58284
O          O       0.13730   0.28995   0.69570  -0.58225
O          O       0.62847   0.82209   0.96254  -0.58206
O          O       0.17848   0.80758   0.96553  -0.58022
O          O       0.19134   0.36918   0.95274  -0.58596
O          O       0.29637   0.15707   0.28899  -0.58364
O          O       0.84215   0.13801   0.29459  -0.58368
O          O       0.85976   0.70710   0.30136  -0.58291
O          O       0.95938   0.48757   0.63844  -0.57949
O          O       0.51073   0.47327   0.63201  -0.57994
O          O       0.52657   0.03910   0.62921  -0.58272
O          O       0.26970   0.23975   0.07849  -0.55805
O          O       0.76170   0.02908   0.08225  -0.55789
O          O       0.97016   0.73462   0.09967  -0.55584
O          O       0.92794   0.56767   0.42397  -0.56068
O          O       0.43259   0.36331   0.40896  -0.56049
O          O       0.63736   0.06723   0.41513  -0.56271
O          O       0.60127   0.90439   0.75112  -0.55905
O          O       0.09508   0.69513   0.75971  -0.56097
O          O       0.30276   0.39533   0.75092  -0.55876
O          O       0.73507   0.76267   0.91743  -0.55899
O          O       0.23440   0.97360   0.91708  -0.55912
O          O       0.02523   0.26051   0.90877  -0.56065
O          O       0.40090   0.09547   0.24617  -0.56199
O          O       0.90240   0.30493   0.25086  -0.56285
O          O       0.69474   0.59741   0.25656  -0.56196
O          O       0.06489   0.42748   0.57689  -0.55869
O          O       0.56994   0.63966   0.58371  -0.55812
O          O       0.36037   0.93043   0.59086  -0.55998
O          O       0.22474   0.27466   0.90678  -0.56749
O          O       0.72249   0.94776   0.91609  -0.56577
O          O       0.05313   0.77271   0.94236  -0.56085
O          O       0.89026   0.61175   0.25954  -0.56654
O          O       0.39013   0.28236   0.24106  -0.56534
O          O       0.71762   0.10771   0.24163  -0.56808
O          O       0.56220   0.94763   0.59179  -0.56573
O          O       0.05047   0.61296   0.59763  -0.56553
O          O       0.38534   0.43735   0.59082  -0.56473
O          O       0.77323   0.71952   0.08353  -0.56414
O          O       0.27987   0.05640   0.07497  -0.56728
O          O       0.94347   0.22325   0.07408  -0.56737
O          O       0.43723   0.05032   0.41099  -0.56316
O          O       0.94231   0.38497   0.42495  -0.56893
O          O       0.61224   0.55968   0.41697  -0.56835
O          O       0.10293   0.38241   0.73258  -0.56519
O          O       0.61476   0.72196   0.74387  -0.56294
O          O       0.27810   0.89712   0.74981  -0.56473

