data_crystal

_audit_creation_method 'AiiDA-DDEC plugin'

_cell_length_a        14.82298
_cell_length_b        14.87201
_cell_length_c        27.80039

_cell_angle_alpha     89.96569
_cell_angle_beta     89.94252
_cell_angle_gamma     89.61606

_symmetry_space_group_name_Hall 'P 1'
_symmetry_space_group_name_H-M  'P 1'

loop_
_symmetry_equiv_pos_as_xyz
 'x,y,z'

loop_
_atom_site_label
_atom_site_type_symbol
_atom_site_fract_x
_atom_site_fract_y
_atom_site_fract_z
_atom_site_charge
Zr         Zr      0.99679   0.99777   0.08610   2.34626
Zr         Zr      0.49732   0.50032   0.58634   2.34562
Zr         Zr      0.00031   0.00036   0.91285   2.34753
Zr         Zr      0.50286   0.50105   0.41319   2.34203
Zr         Zr      0.14527   0.05366   0.00054   2.24035
Zr         Zr      0.05508   0.85243   0.99871   2.24018
Zr         Zr      0.64777   0.55340   0.50078   2.24280
Zr         Zr      0.34994   0.44853   0.49794   2.27488
Zr         Zr      0.44775   0.64861   0.49865   2.24398
Zr         Zr      0.55307   0.35219   0.49948   2.24463
Zr         Zr      0.85184   0.94358   0.99867   2.23763
Zr         Zr      0.94175   0.14558  -0.00002   2.24065
H          H       0.19122   0.98043   0.20022   0.12309
H          H       0.80091   0.02865   0.19549   0.12438
H          H       0.03475   0.19423   0.19396   0.12265
H          H       0.96550   0.79813   0.19567   0.12420
H          H       0.69555   0.46633   0.69670   0.12257
H          H       0.30144   0.53290   0.69689   0.12217
H          H       0.52476   0.69574   0.69680   0.12341
H          H       0.45928   0.29986   0.69382   0.12306
H          H       0.80142   0.03423   0.80283   0.12313
H          H       0.19799   0.96608   0.80486   0.12425
H          H       0.96886   0.80537   0.80413   0.12341
H          H       0.03117   0.19846   0.79985   0.12432
H          H       0.30773   0.52639   0.30017   0.12368
H          H       0.70359   0.45600   0.30548   0.12369
H          H       0.47366   0.30691   0.30245   0.12484
H          H       0.52755   0.69882   0.30001   0.12453
H          H       0.31620   0.95011   0.25732   0.11027
H          H       0.67763   0.06093   0.25350   0.11104
H          H       0.06920   0.31821   0.25091   0.11148
H          H       0.93616   0.67330   0.25272   0.11140
H          H       0.82042   0.43770   0.75418   0.10755
H          H       0.17758   0.56159   0.75506   0.10777
H          H       0.55648   0.81884   0.75440   0.11107
H          H       0.42839   0.17506   0.75083   0.10800
H          H       0.67629   0.06597   0.74602   0.11091
H          H       0.32173   0.93534   0.74647   0.10949
H          H       0.93495   0.68192   0.74705   0.10866
H          H       0.06084   0.32490   0.74359   0.10990
H          H       0.18278   0.55573   0.24289   0.11060
H          H       0.82833   0.42494   0.24789   0.11065
H          H       0.43969   0.18341   0.24524   0.11263
H          H       0.55656   0.82380   0.24302   0.11186
H          H       0.49450   0.10529   0.16821   0.10969
H          H       0.49746   0.90006   0.16875   0.11437
H          H       0.89468   0.49465   0.17041   0.11233
H          H       0.10952   0.50030   0.16924   0.11263
H          H       0.99186   0.61172   0.67141   0.11183
H          H      -0.00119   0.40446   0.66754   0.11164
H          H       0.39825   0.00017   0.66755   0.11093
H          H       0.61075   0.00446   0.67163   0.11256
H          H       0.50368   0.89184   0.82792   0.10994
H          H       0.49707   0.10721   0.82773   0.11184
H          H       0.10406   0.50342   0.82956   0.11081
H          H       0.89366   0.49810   0.83024   0.11271
H          H       0.00745   0.39187   0.32924   0.11267
H          H      -0.00120   0.60604   0.32629   0.11367
H          H       0.60440   0.00325   0.32923   0.11285
H          H       0.39575   0.00044   0.33128   0.11353
H          H       0.37027   0.13108   0.11030   0.10761
H          H       0.62017   0.87214   0.10986   0.10762
H          H       0.86404   0.37152   0.11271   0.10636
H          H       0.13544   0.62456   0.11158   0.10562
H          H       0.86816   0.63531   0.61280   0.10683
H          H       0.12148   0.38158   0.60807   0.11119
H          H       0.37155   0.87760   0.60894   0.10833
H          H       0.63760   0.12812   0.61354   0.10884
H          H       0.62811   0.86401   0.88557   0.10658
H          H       0.37446   0.13425   0.88685   0.10568
H          H       0.13344   0.62620   0.88764   0.10615
H          H       0.86717   0.37271   0.88706   0.10470
H          H       0.13220   0.36646   0.38734   0.11463
H          H       0.87528   0.63324   0.38478   0.10530
H          H       0.63521   0.12629   0.38689   0.10712
H          H       0.37014   0.87577   0.38874   0.10668
H          H       0.27255   0.91023   0.00358   0.41302
H          H       0.29820   0.97798   0.96294   0.40322
H          H       0.71168   0.05316   0.02996   0.42040
H          H       0.72477   0.07628   0.97605   0.42221
H          H       0.08565   0.27219   0.00106   0.41110
H          H       0.01669   0.29578   0.96057   0.40006
H          H       0.98089   0.70014   0.03704   0.39970
H          H       0.90948   0.72740   0.99833   0.41207
H          H       0.77404   0.40798   0.50245   0.40854
H          H       0.79960   0.47838   0.46289   0.39816
H          H       0.22673   0.59659   0.49838   0.40686
H          H       0.20033   0.52865   0.45800   0.40127
H          H       0.59048   0.77634   0.49665   0.41560
H          H       0.51549   0.80085   0.45916   0.39996
H          H       0.41684   0.21370   0.49183   0.40915
H          H       0.50000   0.19681   0.45775   0.39529
H          H       0.24204   0.19434   0.03262   0.41900
H          H       0.25169   0.20269   0.97563   0.42036
H          H       0.73896   0.79968   0.02163   0.42158
H          H       0.75194   0.80792   0.96479   0.41698
H          H       0.80969   0.26410   0.02590   0.41918
H          H       0.81310   0.26212   0.96853   0.41692
H          H       0.19473   0.74701   0.03073   0.41948
H          H       0.19841   0.74386   0.97337   0.41955
H          H       0.76139   0.69048   0.52667   0.42004
H          H       0.76030   0.68691   0.46937   0.41503
H          H       0.36032   0.30278   0.53997   0.40321
H          H       0.25990   0.27532   0.53061   0.41761
H          H       0.30465   0.73175   0.53661   0.41350
H          H       0.28430   0.75744   0.48204   0.41993
H          H       0.69296   0.26806   0.53866   0.41025
H          H       0.71734   0.24406   0.48428   0.42149
C          C       0.49768   0.00340   0.24960   0.00221
C          C       0.00351   0.49574   0.24870   0.00197
C          C      -0.00213   0.50312   0.74994   0.00253
C          C       0.49930  -0.00049   0.74900   0.00152
C          C       0.27235   0.05741   0.15156  -0.05264
C          C       0.71884   0.94806   0.14914  -0.05576
C          C       0.94678   0.27449   0.15005  -0.04840
C          C       0.05250   0.71964   0.15024  -0.06026
C          C       0.77355   0.55271   0.65122  -0.05096
C          C       0.21991   0.45476   0.64905  -0.05053
C          C       0.44582   0.77848   0.64939  -0.05508
C          C       0.55085   0.22229   0.65040  -0.05344
C          C       0.72340   0.94645   0.84746  -0.05541
C          C       0.27807   0.05211   0.84940  -0.06060
C          C       0.05358   0.72404   0.84932  -0.05168
C          C       0.94747   0.27715   0.84706  -0.06293
C          C       0.22782   0.44511   0.34742  -0.05772
C          C       0.78106   0.54705   0.34841  -0.05813
C          C       0.55624   0.22468   0.34831  -0.06021
C          C       0.44738   0.77903   0.34802  -0.05951
C          C       0.25787   0.00830   0.19385  -0.08341
C          C       0.73432  -0.00003   0.19029  -0.08462
C          C       0.00361   0.26017   0.18953  -0.08500
C          C       0.99765   0.73279   0.19067  -0.08274
C          C       0.76055   0.49867   0.69184  -0.08460
C          C       0.23499   0.50427   0.69107  -0.08654
C          C       0.49666   0.76261   0.69101  -0.08115
C          C       0.49304   0.23508   0.68970  -0.08488
C          C       0.73625   0.00222   0.80751  -0.08449
C          C       0.26367   0.99730   0.80923  -0.08240
C          C      -0.00102   0.73909   0.80900  -0.08379
C          C       0.00049   0.26422   0.80587  -0.08265
C          C       0.24179   0.49652   0.30591  -0.08650
C          C       0.76830   0.48941   0.30927  -0.08354
C          C       0.50281   0.24024   0.30758  -0.08130
C          C       0.49824   0.76509   0.30621  -0.08287
C          C       0.32865   0.99175   0.22593  -0.15227
C          C       0.66463   0.01762   0.22287  -0.15134
C          C       0.02250   0.33009   0.22147  -0.15149
C          C       0.98186   0.66225   0.22272  -0.15075
C          C       0.83110   0.48324   0.72418  -0.14978
C          C       0.16504   0.51969   0.72383  -0.14826
C          C       0.51392   0.83216   0.72339  -0.15235
C          C       0.47625   0.16469   0.72173  -0.15029
C          C       0.66561   0.01938   0.77554  -0.15072
C          C       0.33340   0.98051   0.77650  -0.14643
C          C       0.98054   0.66934   0.77689  -0.14769
C          C       0.01678   0.33564   0.77433  -0.14756
C          C       0.17116   0.51241   0.27371  -0.15037
C          C       0.83863   0.47258   0.27694  -0.14641
C          C       0.48414   0.17040   0.27554  -0.14774
C          C       0.51390   0.83573   0.27418  -0.14934
C          C       0.41528   0.02519   0.21716   0.07065
C          C       0.57825   0.98250   0.21575   0.07057
C          C       0.98369   0.41534   0.21522   0.06895
C          C       0.02177   0.57760   0.21578   0.07198
C          C       0.91548   0.52314   0.71738   0.07042
C          C       0.07895   0.48431   0.71606   0.06888
C          C       0.47924   0.91879   0.71556   0.07173
C          C       0.51835   0.08085   0.71596   0.07083
C          C       0.58110   0.97962   0.78198   0.07193
C          C       0.41842   0.01928   0.78264   0.07245
C          C       0.01794   0.58350   0.78354   0.06890
C          C       0.97921   0.42093   0.78255   0.07583
C          C       0.08555   0.47592   0.28162   0.06995
C          C       0.92234   0.51444   0.28226   0.07129
C          C       0.51959   0.08390   0.28283   0.07123
C          C       0.47799   0.92171   0.28256   0.07300
C          C       0.42793   0.07843   0.17579  -0.14289
C          C       0.56411   0.92780   0.17511  -0.14347
C          C       0.92502   0.42865   0.17598  -0.14641
C          C       0.07871   0.56580   0.17563  -0.13867
C          C       0.92669   0.58046   0.67748  -0.13993
C          C       0.06531   0.43202   0.67449  -0.14243
C          C       0.42556   0.93333   0.67445  -0.14241
C          C       0.57818   0.06943   0.67699  -0.13931
C          C       0.56933   0.92203   0.82173  -0.14253
C          C       0.43144   0.07651   0.82237  -0.13911
C          C       0.07489   0.56976   0.82348  -0.14412
C          C       0.92336   0.43235   0.82315  -0.13901
C          C       0.07334   0.42099   0.32240  -0.14391
C          C       0.93389   0.57371   0.32125  -0.14231
C          C       0.57608   0.06987   0.32291  -0.14303
C          C       0.42416   0.93425   0.32385  -0.14339
C          C       0.35820   0.09341   0.14319  -0.09763
C          C       0.63280   0.91176   0.14197  -0.10226
C          C       0.90741   0.35973   0.14361  -0.09828
C          C       0.09327   0.63528   0.14310  -0.10474
C          C       0.85740   0.59406   0.64454  -0.09859
C          C       0.13405   0.41862   0.64107  -0.09795
C          C       0.41001   0.86475   0.64151  -0.09503
C          C       0.59357   0.13857   0.64437  -0.09724
C          C       0.63897   0.90624   0.85421  -0.09962
C          C       0.36284   0.09196   0.85560  -0.10625
C          C       0.09179   0.63846   0.85613  -0.09839
C          C       0.90837   0.36207   0.85515  -0.10577
C          C       0.14293   0.40650   0.35512  -0.10314
C          C       0.86481   0.58913   0.35415  -0.10772
C          C       0.59356   0.13873   0.35538  -0.10742
C          C       0.40972   0.86449   0.35633  -0.10786
C          C       0.19919   0.06352   0.11456   0.63753
C          C       0.79240   0.93775   0.11258   0.63117
C          C       0.93506   0.20118   0.11379   0.63724
C          C       0.06042   0.79305   0.11382   0.63166
C          C       0.70087   0.55940   0.61417   0.63901
C          C       0.29338   0.44629   0.61241   0.63230
C          C       0.43596   0.70522   0.61305   0.64047
C          C       0.56017   0.29549   0.61397   0.63459
C          C       0.79700   0.93748   0.88387   0.63587
C          C       0.20512   0.06182   0.88623   0.63126
C          C       0.06412   0.79700   0.88582   0.63841
C          C       0.93929   0.20350   0.88342   0.63004
C          C       0.30062   0.43884   0.38447   0.63085
C          C       0.70777   0.55733   0.38491   0.63137
C          C       0.56622   0.29716   0.38518   0.62942
C          C       0.44064   0.70527   0.38450   0.62860
O          O       0.12073   0.03973   0.12770  -0.58967
O          O       0.87179   0.95531   0.12699  -0.58976
O          O       0.95485   0.12175   0.12752  -0.59614
O          O       0.04000   0.87183   0.12737  -0.57601
O          O       0.62173   0.53803   0.62760  -0.59351
O          O       0.37329   0.46242   0.62709  -0.60337
O          O       0.45737   0.62645   0.62681  -0.58712
O          O       0.53755   0.37401   0.62736  -0.58479
O          O       0.87574   0.95974   0.87048  -0.58851
O          O       0.12553   0.04426   0.87260  -0.58148
O          O       0.04428   0.87636   0.87212  -0.59568
O          O       0.95965   0.12447   0.87012  -0.57783
O          O       0.38004   0.45781   0.37064  -0.58620
O          O       0.62793   0.54178   0.37104  -0.57741
O          O       0.54691   0.37662   0.37207  -0.58177
O          O       0.46153   0.62662   0.37063  -0.57805
O          O       0.79064   0.47124   0.49758  -0.76590
O          O       0.20956   0.53364   0.49268  -0.76106
O          O       0.52636   0.79115   0.49355  -0.75969
O          O       0.48266   0.20477   0.49155  -0.77594
O          O       0.20896   0.20462   0.00239  -0.76242
O          O       0.20458   0.78281   0.00156  -0.76443
O          O       0.72345   0.69789   0.49810  -0.76103
O          O       0.31720   0.28342   0.51416  -0.76735
O          O       0.28967   0.70731   0.50442  -0.75683
O          O       0.71026   0.29342   0.50698  -0.75676
O          O       0.22223   0.08885   0.07193  -0.64145
O          O       0.76896   0.91522   0.06960  -0.64283
O          O       0.90914   0.22479   0.07148  -0.63622
O          O       0.08402   0.76894   0.07080  -0.65559
O          O       0.72465   0.58285   0.57151  -0.63631
O          O       0.27039   0.42530   0.56942  -0.63607
O          O       0.40938   0.72807   0.57043  -0.64724
O          O       0.58693   0.27220   0.57145  -0.64694
O          O       0.77370   0.91137   0.92635  -0.64145
O          O       0.23001   0.08412   0.92921  -0.65382
O          O       0.08928   0.77346   0.92835  -0.63969
O          O       0.91549   0.22730   0.92637  -0.65301
O          O       0.27542   0.41847   0.42756  -0.63538
O          O       0.73294   0.57807   0.42806  -0.65182
O          O       0.59000   0.27185   0.42792  -0.64983
O          O       0.41762   0.72916   0.42761  -0.65404
O          O       0.11040   0.94732   0.04419  -1.15193
O          O       0.04559   0.10743   0.04435  -1.15276
O          O       0.39123   0.55082   0.54211  -1.15828
O          O       0.60537   0.44927   0.54414  -1.15359
O          O       0.44506   0.38570   0.54414  -1.16854
O          O       0.55077   0.61269   0.54397  -1.14929
O          O       0.04874   0.11023   0.95569  -1.17128
O          O       0.61101   0.44901   0.45574  -1.17144
O          O       0.39183   0.55249   0.45373  -1.17496
O          O       0.55415   0.61171   0.45463  -1.16982
O          O       0.44989   0.39139   0.45512  -1.16274
O          O       0.78287   0.79551   0.99550  -0.76384
O          O       0.94855   0.88867   0.04347  -1.17623
O          O       0.80005   0.22655   0.99742  -0.77692
O          O       0.88483   0.04872   0.04378  -1.17162
O          O       0.28871   0.97307   0.99767  -0.76017
O          O       0.97312   0.71094   0.00256  -0.75983
O          O       0.11088   0.95026   0.95519  -1.17288
O          O       0.88765   0.04974   0.95442  -1.16838
O          O       0.95043   0.88918   0.95433  -1.14982
O          O       0.71085   0.02676   0.99785  -0.76182
O          O       0.02235   0.28867   0.99546  -0.76390

