data_crystal

_cell_length_a 13.51790
_cell_length_b 14.61140
_cell_length_c 16.61260
_cell_angle_alpha 79.15220
_cell_angle_beta  65.99240
_cell_angle_gamma 62.44670

_symmetry_space_group_name_	'P 1'
_symmetry_space_group_name_H-M	'P 1'

loop_
_symmetry_equiv_pos_as_xyz
  x,y,z

loop_
_atom_site_label
_atom_site_type_symbol
_atom_site_fract_x
_atom_site_fract_y
_atom_site_fract_z
_atom_site_charge
Co	Co	0.87500 0.75000 0.75000 1.05500
Co	Co	0.12500 0.25000 0.25000 1.05500
H 	H 	0.82980 0.27520 0.07100 0.03500
H 	H 	0.01680 0.14040 0.91660 0.04800
H 	H 	0.46020 0.40060 0.36740 0.04400
H 	H 	0.32760 0.90060 0.63260 0.04500
H 	H 	0.44700 0.13040 0.67080 0.06100
H 	H 	0.12870 0.46840 0.16520 -0.02100
H 	H 	0.15820 0.01000 0.74180 0.05700
H 	H 	0.84980 0.24560 0.38780 0.04100
H 	H 	0.60000 0.49000 0.74180 0.05800
H 	H 	0.20610 0.03160 0.16520 -0.02200
H 	H 	0.65720 0.85960 0.41660 0.04700
H 	H 	0.87130 0.53160 0.83480 -0.02200
H 	H 	0.67240 0.09940 0.36740 0.04400
H 	H 	0.60500 0.72480 0.57100 0.03400
H 	H 	0.38050 0.41880 0.02480 0.04700
H 	H 	0.17020 0.72480 0.92900 0.03400
H 	H 	0.56660 0.35960 0.91660 0.04700
H 	H 	0.53980 0.59940 0.63260 0.04300
H 	H 	0.70070 0.41880 0.47520 0.04700
H 	H 	0.26230 0.03160 0.33480 -0.02200
H 	H 	0.98320 0.85960 0.08340 0.04700
H 	H 	0.63920 0.40060 0.13260 0.04300
H 	H 	0.67590 0.91880 0.52480 0.04700
H 	H 	0.59920 0.22480 0.07100 0.03400
H 	H 	0.33180 0.01000 0.75820 0.05700
H 	H 	0.90290 0.46840 0.33480 -0.02200
H 	H 	0.18740 0.89300 0.11060 0.06000
H 	H 	0.55300 0.86960 0.32920 0.06000
H 	H 	0.26240 0.25440 0.38780 0.04100
H 	H 	0.41960 0.89300 0.38940 0.06000
H 	H 	0.43340 0.64040 0.08340 0.04700
H 	H 	0.40000 0.51000 0.25820 0.05800
H 	H 	0.79800 0.39300 0.88940 0.06000
H 	H 	0.29930 0.58120 0.52480 0.04700
H 	H 	0.67600 0.22480 0.42900 0.03300
H 	H 	0.32410 0.08120 0.47520 0.04700
H 	H 	0.07740 0.86960 0.17080 0.06000
H 	H 	0.39500 0.27520 0.42900 0.03400
H 	H 	0.84180 0.99000 0.25820 0.05700
H 	H 	0.41000 0.49000 0.75820 0.05800
H 	H 	0.66820 0.99000 0.24180 0.05700
H 	H 	0.40460 0.24560 0.11220 0.04100
H 	H 	0.61950 0.58120 0.97520 0.04700
H 	H 	0.34280 0.14040 0.58340 0.04700
H 	H 	0.58040 0.10700 0.61060 0.06000
H 	H 	0.20200 0.60700 0.11060 0.06000
H 	H 	0.01680 0.74560 0.88780 0.04100
H 	H 	0.57380 0.35960 0.58340 0.04700
H 	H 	0.27180 0.90060 0.86740 0.04400
H 	H 	0.59000 0.51000 0.24180 0.05800
H 	H 	0.73770 0.96840 0.66520 -0.02200
H 	H 	0.59540 0.75440 0.88780 0.04100
H 	H 	0.92260 0.13040 0.82920 0.06000
H 	H 	0.81260 0.10700 0.88940 0.06000
H 	H 	0.09710 0.53160 0.66520 -0.02200
H 	H 	0.15020 0.75440 0.61220 0.04100
H 	H 	0.74820 0.36960 0.82920 0.06000
H 	H 	0.69100 0.60700 0.38940 0.06000
H 	H 	0.42620 0.64040 0.41660 0.04700
H 	H 	0.90530 0.91880 0.97520 0.04700
H 	H 	0.30900 0.39300 0.61060 0.06000
H 	H 	0.38220 0.36960 0.67080 0.06000
H 	H 	0.36080 0.59940 0.86740 0.04300
H 	H 	0.32400 0.77520 0.57100 0.03300
H 	H 	0.61780 0.63040 0.32920 0.06000
H 	H 	0.25180 0.63040 0.17080 0.06000
H 	H 	0.73760 0.74560 0.61220 0.04100
H 	H 	0.40080 0.77520 0.92900 0.03400
H 	H 	0.72820 0.09940 0.13260 0.04400
H 	H 	0.79390 0.96840 0.83480 -0.02200
H 	H 	0.09470 0.08120 0.02480 0.04700
H 	H 	0.98320 0.25440 0.11220 0.04100
C 	C 	0.94685 0.05442 0.25980 0.05400
C 	C 	0.30179 0.60616 0.84846 -0.03400
C 	C 	0.82639 0.55166 0.79924 0.07700
C 	C 	0.59205 0.60616 0.65154 -0.03400
C 	C 	0.04722 0.96418 0.06658 0.05100
C 	C 	0.37260 0.45968 0.28388 -0.08500
C 	C 	0.66184 0.57660 0.36216 -0.11200
C 	C 	0.84873 0.19508 0.36186 -0.09800
C 	C 	0.95056 0.13014 0.29738 0.04200
C 	C 	0.38620 0.53582 0.06658 0.05200
C 	C 	0.25206 0.36986 0.29738 0.04100
C 	C 	0.12563 0.05166 0.20076 0.07600
C 	C 	0.49873 0.05442 0.24020 0.05300
C 	C 	0.17361 0.44834 0.20076 0.07700
C 	C 	0.42202 0.46418 0.56658 0.05200
C 	C 	0.76107 0.44558 0.24020 0.05400
C 	C 	0.70665 0.55442 0.74020 0.05400
C 	C 	0.54381 0.80492 0.86186 -0.09700
C 	C 	0.15127 0.80492 0.63814 -0.09800
C 	C 	0.47600 0.92340 0.36216 -0.11300
C 	C 	0.48860 0.96418 0.43342 0.05200
C 	C 	0.38384 0.95968 0.78388 -0.08300
C 	C 	0.89940 0.07660 0.86216 -0.11200
C 	C 	0.74359 0.10616 0.34846 -0.03500
C 	C 	0.61616 0.04032 0.21612 -0.08300
C 	C 	0.61922 0.45192 0.48502 -0.06400
C 	C 	0.29335 0.44558 0.25980 0.05400
C 	C 	0.63194 0.68186 0.61386 -0.02000
C 	C 	0.54327 0.41660 0.54994 -0.07600
C 	C 	0.42766 0.81814 0.88614 -0.01900
C 	C 	0.99019 0.91660 0.04994 -0.07400
C 	C 	0.33816 0.42340 0.63784 -0.11200
C 	C 	0.74580 0.18186 0.38614 -0.01900
C 	C 	0.15648 0.95968 0.71612 -0.08300
C 	C 	0.87808 0.36986 0.20262 0.04100
C 	C 	0.39576 0.04808 0.48502 -0.06500
C 	C 	0.42886 0.45192 0.01498 -0.06400
C 	C 	0.34975 0.89384 0.84846 -0.03500
C 	C 	0.25641 0.89384 0.65154 -0.03500
C 	C 	0.87805 0.44834 0.29924 0.07700
C 	C 	0.51140 0.03582 0.56658 0.05200
C 	C 	0.09433 0.69508 0.86186 -0.09700
C 	C 	0.57114 0.54808 0.98502 -0.06400
C 	C 	0.25420 0.81814 0.61386 -0.01900
C 	C 	0.57234 0.18186 0.11386 -0.01900
C 	C 	0.58070 0.86986 0.79738 0.04200
C 	C 	0.67729 0.94834 0.70076 0.07700
C 	C 	0.40795 0.39384 0.34846 -0.03400
C 	C 	0.59321 0.91660 0.45006 -0.07600
C 	C 	0.45987 0.58340 0.04994 -0.07600
C 	C 	0.71059 0.69508 0.63814 -0.09700
C 	C 	0.74794 0.63014 0.70262 0.04100
C 	C 	0.38078 0.54808 0.51498 -0.06400
C 	C 	0.50127 0.94558 0.75980 0.05300
C 	C 	0.54013 0.41660 0.95006 -0.07600
C 	C 	0.57798 0.53582 0.43342 0.05200
C 	C 	0.32271 0.05166 0.29924 0.07700
C 	C 	0.87437 0.94834 0.79924 0.07600
C 	C 	0.94384 0.95192 0.98502 -0.06600
C 	C 	0.04944 0.86986 0.70262 0.04200
C 	C 	0.45673 0.58340 0.45006 -0.07600
C 	C 	0.95278 0.03582 0.93342 0.05100
C 	C 	0.26156 0.57660 0.13784 -0.11200
C 	C 	0.81380 0.31814 0.11386 -0.02000
C 	C 	0.41930 0.13014 0.20262 0.04200
C 	C 	0.05616 0.04808 0.01498 -0.06600
C 	C 	0.52400 0.07660 0.63784 -0.11300
C 	C 	0.28941 0.30492 0.36186 -0.09700
C 	C 	0.90567 0.30492 0.13814 -0.09700
C 	C 	0.33228 0.54032 0.78388 -0.08500
C 	C 	0.05315 0.94558 0.74020 0.05400
C 	C 	0.18620 0.68186 0.88614 -0.02000
C 	C 	0.23893 0.55442 0.75980 0.05400
C 	C 	0.84352 0.04032 0.28388 -0.08300
C 	C 	0.61380 0.46418 0.93342 0.05200
C 	C 	0.60424 0.95192 0.51498 -0.06500
C 	C 	0.62740 0.54032 0.71612 -0.08500
C 	C 	0.69821 0.39384 0.15154 -0.03400
C 	C 	0.73844 0.42340 0.86216 -0.11200
C 	C 	0.12195 0.55166 0.70076 0.07700
C 	C 	0.45619 0.19508 0.13814 -0.09700
C 	C 	0.10060 0.92340 0.13784 -0.11200
C 	C 	0.40679 0.08340 0.54994 -0.07600
C 	C 	0.65025 0.10616 0.15154 -0.03500
C 	C 	0.66772 0.45968 0.21612 -0.08500
C 	C 	0.00981 0.08340 0.95006 -0.07400
C 	C 	0.36806 0.31814 0.38614 -0.02000
C 	C 	0.12192 0.63014 0.79738 0.04100
N 	N 	0.95006 0.37290 0.24298 -0.24800
N 	N 	0.93912 0.99546 0.80188 -0.12000
N 	N 	0.82296 0.62710 0.74298 -0.24900
N 	N 	0.43458 0.00454 0.30188 -0.11900
N 	N 	0.75900 0.50454 0.80188 -0.12000
N 	N 	0.93406 0.87290 0.74298 -0.24900
N 	N 	0.06088 0.00454 0.19812 -0.12000
N 	N 	0.24100 0.49546 0.19812 -0.12000
N 	N 	0.23646 0.50454 0.69812 -0.11900
N 	N 	0.17704 0.37290 0.25702 -0.24900
N 	N 	0.69304 0.87290 0.75702 -0.24900
N 	N 	0.06594 0.12710 0.25702 -0.24900
N 	N 	0.76354 0.49546 0.30188 -0.11900
N 	N 	0.04994 0.62710 0.75702 -0.24800
N 	N 	0.56542 0.99546 0.69812 -0.11900
N 	N 	0.30696 0.12710 0.24298 -0.24900
