data_crystal

_cell_length_a 11.87310
_cell_length_b 13.23340
_cell_length_c 18.47430
_cell_angle_alpha 90.00000
_cell_angle_beta  90.00000
_cell_angle_gamma 109.51100

_symmetry_space_group_name_	'P 1'
_symmetry_space_group_name_H-M	'P 1'

loop_
_symmetry_equiv_pos_as_xyz
  x,y,z

loop_
_atom_site_label
_atom_site_type_symbol
_atom_site_fract_x
_atom_site_fract_y
_atom_site_fract_z
_atom_site_charge
Mn	Mn	0.15165 0.78744 0.97968 1.26000
Mn	Mn	0.34835 0.71256 0.47968 1.24300
Mn	Mn	0.84835 0.21256 0.02032 1.23000
Mn	Mn	0.65165 0.28744 0.52032 1.24600
Mn	Mn	-0.00000 0.50000 -0.00000 1.28200
Mn	Mn	0.50000 0.00000 0.50000 1.30400
H 	H 	0.06950 0.13300 0.85590 0.01600
H 	H 	0.24740 0.44800 0.85830 0.03000
H 	H 	0.38020 0.42790 0.77490 0.06600
H 	H 	0.44570 0.31060 0.69180 0.05000
H 	H 	0.27680 0.99460 0.69450 0.08500
H 	H 	0.14670 0.01320 0.77960 0.01100
H 	H 	0.59380 0.58480 0.87550 0.05300
H 	H 	0.45040 0.66440 0.87000 0.05300
H 	H 	0.30530 0.52300 0.05550 0.07900
H 	H 	0.43050 0.36700 0.35590 0.03500
H 	H 	0.25260 0.05200 0.35830 0.02300
H 	H 	0.11980 0.07210 0.27490 0.03900
H 	H 	0.05430 0.18940 0.19180 0.01800
H 	H 	0.22320 0.50540 0.19450 0.02300
H 	H 	0.35330 0.48680 0.27960 0.05000
H 	H 	0.90620 0.91520 0.37550 0.08500
H 	H 	0.04960 0.83560 0.37000 0.02400
H 	H 	0.19470 0.97700 0.55550 0.03200
H 	H 	0.93050 0.86700 0.14410 0.05300
H 	H 	0.75260 0.55200 0.14170 0.03700
H 	H 	0.61980 0.57210 0.22510 0.05300
H 	H 	0.55430 0.68940 0.30820 0.02500
H 	H 	0.72320 0.00540 0.30550 -0.03400
H 	H 	0.85330 0.98680 0.22040 0.09200
H 	H 	0.40620 0.41520 0.12450 0.07800
H 	H 	0.54960 0.33560 0.13000 0.01300
H 	H 	0.69470 0.47700 0.94450 0.03400
H 	H 	0.56950 0.63300 0.64410 0.03300
H 	H 	0.74740 0.94800 0.64170 0.04300
H 	H 	0.88020 0.92790 0.72510 0.08000
H 	H 	0.94570 0.81060 0.80820 0.05800
H 	H 	0.77680 0.49460 0.80550 0.03100
H 	H 	0.64670 0.51320 0.72040 0.05000
H 	H 	0.09380 0.08480 0.62450 0.04700
H 	H 	0.95040 0.16440 0.63000 0.04200
H 	H 	0.80530 0.02300 0.44450 0.08000
C 	C 	0.13210 0.19170 0.83927 -0.00800
C 	C 	0.14420 0.29160 0.86438 -0.11700
C 	C 	0.23860 0.38020 0.84025 0.04000
C 	C 	0.31780 0.36820 0.79056 -0.12100
C 	C 	0.38460 0.25140 0.70933 -0.06300
C 	C 	0.37280 0.15270 0.68313 -0.06800
C 	C 	0.28320 0.06260 0.71104 -0.08300
C 	C 	0.20570 0.07370 0.76189 -0.03700
C 	C 	0.21350 0.17600 0.78821 -0.02700
C 	C 	0.30620 0.26640 0.76264 0.04900
C 	C 	0.05720 0.30860 0.91844 0.37500
C 	C 	0.45470 0.14240 0.62308 0.40500
C 	C 	0.53820 0.57390 0.91268 -0.05300
C 	C 	0.45170 0.62010 0.90890 -0.03600
C 	C 	0.36370 0.60170 0.96336 0.00700
C 	C 	0.36490 0.53690 0.02053 -0.14700
C 	C 	0.45590 0.49050 0.02732 0.03400
C 	C 	0.27650 0.66160 0.96118 0.30800
C 	C 	0.36790 0.30830 0.33927 -0.02700
C 	C 	0.35580 0.20840 0.36438 -0.11900
C 	C 	0.26140 0.11980 0.34025 0.02200
C 	C 	0.18220 0.13180 0.29056 -0.10200
C 	C 	0.11540 0.24860 0.20933 -0.03000
C 	C 	0.12720 0.34730 0.18313 -0.11300
C 	C 	0.21680 0.43740 0.21104 0.01800
C 	C 	0.29430 0.42630 0.26189 -0.10700
C 	C 	0.28650 0.32400 0.28821 0.01300
C 	C 	0.19380 0.23360 0.26264 0.00900
C 	C 	0.44280 0.19140 0.41844 0.42300
C 	C 	0.04530 0.35760 0.12308 0.37200
C 	C 	0.96180 0.92610 0.41268 -0.11600
C 	C 	0.04830 0.87990 0.40890 0.01500
C 	C 	0.13630 0.89830 0.46336 -0.12600
C 	C 	0.13510 0.96310 0.52053 0.05500
C 	C 	0.04410 0.00950 0.52732 -0.12500
C 	C 	0.22350 0.83840 0.46118 0.35200
C 	C 	0.86790 0.80830 0.16073 -0.04100
C 	C 	0.85580 0.70840 0.13562 -0.11200
C 	C 	0.76140 0.61980 0.15975 0.01800
C 	C 	0.68220 0.63180 0.20944 -0.08100
C 	C 	0.61540 0.74860 0.29067 0.01300
C 	C 	0.62720 0.84730 0.31687 -0.16200
C 	C 	0.71680 0.93740 0.28896 0.13500
C 	C 	0.79430 0.92630 0.23811 -0.17500
C 	C 	0.78650 0.82400 0.21179 0.05500
C 	C 	0.69380 0.73360 0.23736 -0.01200
C 	C 	0.94280 0.69140 0.08156 0.46700
C 	C 	0.54530 0.85760 0.37692 0.44000
C 	C 	0.46180 0.42610 0.08732 -0.14300
C 	C 	0.54830 0.37990 0.09110 0.06000
C 	C 	0.63630 0.39830 0.03664 -0.18000
C 	C 	0.63510 0.46310 0.97947 0.06100
C 	C 	0.54410 0.50950 0.97268 0.02000
C 	C 	0.72350 0.33840 0.03882 0.36500
C 	C 	0.63210 0.69170 0.66073 -0.01900
C 	C 	0.64420 0.79160 0.63562 -0.11400
C 	C 	0.73860 0.88020 0.65975 0.03900
C 	C 	0.81780 0.86820 0.70944 -0.10200
C 	C 	0.88460 0.75140 0.79067 -0.02300
C 	C 	0.87280 0.65270 0.81687 -0.11300
C 	C 	0.78320 0.56260 0.78896 0.02700
C 	C 	0.70570 0.57370 0.73811 -0.10000
C 	C 	0.71350 0.67600 0.71179 0.01200
C 	C 	0.80620 0.76640 0.73736 0.03100
C 	C 	0.55720 0.80860 0.58156 0.42200
C 	C 	0.95470 0.64240 0.87692 0.46900
C 	C 	0.03820 0.07390 0.58732 -0.08200
C 	C 	0.95170 0.12010 0.59110 0.01100
C 	C 	0.86370 0.10170 0.53664 -0.04900
C 	C 	0.86490 0.03690 0.47947 -0.14200
C 	C 	0.95590 0.99050 0.47268 0.17700
C 	C 	0.77650 0.16160 0.53882 0.32200
O 	O 	0.07017 0.40203 0.93552 -0.44800
O 	O 	0.97789 0.22671 0.94122 -0.44900
O 	O 	0.43749 0.05191 0.59772 -0.46100
O 	O 	0.53265 0.22675 0.60455 -0.50300
O 	O 	0.18233 0.62877 0.99903 -0.49200
O 	O 	0.30281 0.74639 0.92602 -0.41300
O 	O 	0.42983 0.09797 0.43552 -0.47900
O 	O 	0.52211 0.27329 0.44122 -0.51300
O 	O 	0.06251 0.44809 0.09772 -0.46200
O 	O 	0.96735 0.27325 0.10455 -0.47400
O 	O 	0.31767 0.87123 0.49903 -0.51800
O 	O 	0.19719 0.75361 0.42602 -0.44000
O 	O 	0.92983 0.59797 0.06448 -0.47600
O 	O 	0.02211 0.77329 0.05878 -0.57200
O 	O 	0.56251 0.94809 0.40228 -0.43900
O 	O 	0.46735 0.77325 0.39545 -0.51000
O 	O 	0.81767 0.37123 0.00097 -0.54100
O 	O 	0.69719 0.25361 0.07398 -0.44900
O 	O 	0.57017 0.90203 0.56448 -0.45500
O 	O 	0.47789 0.72671 0.55878 -0.51300
O 	O 	0.93749 0.55191 0.90228 -0.43100
O 	O 	0.03265 0.72675 0.89545 -0.53700
O 	O 	0.68233 0.12877 0.50097 -0.52200
O 	O 	0.80281 0.24639 0.57398 -0.42100
