data_crystal

_cell_length_a 10.31770
_cell_length_b 10.31770
_cell_length_c 12.65270
_cell_angle_alpha 100.75400
_cell_angle_beta  100.75400
_cell_angle_gamma 104.73000

_symmetry_space_group_name_	'P 1'
_symmetry_space_group_name_H-M	'P 1'

loop_
_symmetry_equiv_pos_as_xyz
  x,y,z

loop_
_atom_site_label
_atom_site_type_symbol
_atom_site_fract_x
_atom_site_fract_y
_atom_site_fract_z
_atom_site_charge
Mn	Mn	0.77286 0.37852 0.90147 1.28200
Mn	Mn	0.62148 0.22714 0.59853 1.28200
Mn	Mn	0.22714 0.62148 0.09853 1.28200
Mn	Mn	0.37852 0.77286 0.40147 1.28200
H 	H 	0.61490 0.67290 0.59070 0.00700
H 	H 	0.82770 0.03810 0.80240 -0.00100
H 	H 	0.92350 0.92550 0.92150 0.08200
H 	H 	0.86980 0.68820 0.87550 -0.00900
H 	H 	0.32710 0.38510 0.90930 0.00600
H 	H 	0.96190 0.17230 0.69760 -0.00200
H 	H 	0.07450 0.07650 0.57850 0.08300
H 	H 	0.31180 0.13020 0.62450 -0.00900
H 	H 	0.38510 0.32710 0.40930 0.00700
H 	H 	0.17230 0.96190 0.19760 -0.00100
H 	H 	0.07650 0.07450 0.07850 0.08200
H 	H 	0.13020 0.31180 0.12450 -0.00900
H 	H 	0.67290 0.61490 0.09070 0.00600
H 	H 	0.03810 0.82770 0.30240 -0.00200
H 	H 	0.92550 0.92350 0.42150 0.08300
H 	H 	0.68820 0.86980 0.37550 -0.00900
C 	C 	0.73691 0.65689 0.72890 -0.17700
C 	C 	0.67825 0.72415 0.65700 0.11600
C 	C 	0.71295 0.86685 0.68320 -0.21100
C 	C 	0.80480 0.94220 0.78330 0.10500
C 	C 	0.86200 0.87460 0.85430 -0.17500
C 	C 	0.82930 0.73270 0.82730 0.09800
C 	C 	0.70138 0.50242 0.69850 0.37700
C 	C 	0.65092 0.93948 0.60480 0.48300
C 	C 	0.34311 0.26309 0.77110 -0.17800
C 	C 	0.27585 0.32175 0.84300 0.11800
C 	C 	0.13315 0.28705 0.81680 -0.21200
C 	C 	0.05780 0.19520 0.71670 0.10800
C 	C 	0.12540 0.13800 0.64570 -0.17700
C 	C 	0.26730 0.17070 0.67270 0.09900
C 	C 	0.49758 0.29862 0.80150 0.37700
C 	C 	0.06052 0.34908 0.89520 0.48500
C 	C 	0.26309 0.34311 0.27110 -0.17700
C 	C 	0.32175 0.27585 0.34300 0.11600
C 	C 	0.28705 0.13315 0.31680 -0.21100
C 	C 	0.19520 0.05780 0.21670 0.10500
C 	C 	0.13800 0.12540 0.14570 -0.17500
C 	C 	0.17070 0.26730 0.17270 0.09800
C 	C 	0.29862 0.49758 0.30150 0.37700
C 	C 	0.34908 0.06052 0.39520 0.48300
C 	C 	0.65689 0.73691 0.22890 -0.17800
C 	C 	0.72415 0.67825 0.15700 0.11800
C 	C 	0.86685 0.71295 0.18320 -0.21200
C 	C 	0.94220 0.80480 0.28330 0.10800
C 	C 	0.87460 0.86200 0.35430 -0.17700
C 	C 	0.73270 0.82930 0.32730 0.09900
C 	C 	0.50242 0.70138 0.19850 0.37700
C 	C 	0.93948 0.65092 0.10480 0.48500
O 	O 	0.78040 0.44728 0.75000 -0.50900
O 	O 	0.59832 0.43406 0.62225 -0.43400
O 	O 	0.55669 0.86819 0.52448 -0.52500
O 	O 	0.70059 0.06727 0.62600 -0.51000
O 	O 	0.55272 0.21960 0.75000 -0.50900
O 	O 	0.56594 0.40168 0.87775 -0.43400
O 	O 	0.13181 0.44331 0.97552 -0.52500
O 	O 	0.93273 0.29941 0.87400 -0.51100
O 	O 	0.21960 0.55272 0.25000 -0.50900
O 	O 	0.40168 0.56594 0.37775 -0.43400
O 	O 	0.44331 0.13181 0.47552 -0.52500
O 	O 	0.29941 0.93273 0.37400 -0.51000
O 	O 	0.44728 0.78040 0.25000 -0.50900
O 	O 	0.43406 0.59832 0.12225 -0.43400
O 	O 	0.86819 0.55669 0.02448 -0.52500
O 	O 	0.06727 0.70059 0.12600 -0.51100
