data_crystal

_cell_length_a 8.36500
_cell_length_b 9.79500
_cell_length_c 20.94600
_cell_angle_alpha 90.00000
_cell_angle_beta  90.00000
_cell_angle_gamma 90.00000

_symmetry_space_group_name_	'P 1'
_symmetry_space_group_name_H-M	'P 1'

loop_
_symmetry_equiv_pos_as_xyz
  x,y,z

loop_
_atom_site_label
_atom_site_type_symbol
_atom_site_fract_x
_atom_site_fract_y
_atom_site_fract_z
_atom_site_charge
Cd	Cd	0.50768 0.60338 0.71677 1.13900
Cd	Cd	0.30831 0.65942 0.97866 1.14800
Cd	Cd	0.99232 0.39662 0.21677 1.14000
Cd	Cd	0.19169 0.34058 0.47866 1.14900
Cd	Cd	0.49232 0.10338 0.78323 1.14000
Cd	Cd	0.69169 0.15942 0.52134 1.14800
Cd	Cd	0.00768 0.89662 0.28323 1.14000
Cd	Cd	0.80831 0.84058 0.02134 1.14800
H 	H 	0.42480 0.40010 0.92410 0.19400
H 	H 	0.69430 0.67810 0.81560 0.15300
H 	H 	0.67210 0.41000 0.93970 -0.01700
H 	H 	0.78880 0.49750 0.84600 -0.01700
H 	H 	0.07520 0.59990 0.42410 0.19400
H 	H 	0.80570 0.32190 0.31560 0.15200
H 	H 	0.82790 0.59000 0.43970 -0.01700
H 	H 	0.71120 0.50250 0.34600 -0.01700
H 	H 	0.57520 0.90010 0.57590 0.19500
H 	H 	0.30570 0.17810 0.68440 0.15100
H 	H 	0.32790 0.91000 0.56030 -0.01800
H 	H 	0.21120 0.99750 0.65400 -0.01400
H 	H 	0.92480 0.09990 0.07590 0.19500
H 	H 	0.19430 0.82190 0.18440 0.15100
H 	H 	0.17210 0.09000 0.06030 -0.01900
H 	H 	0.28880 0.00250 0.15400 -0.01400
C 	C 	0.67840 0.62030 0.95551 0.27000
C 	C 	0.62140 0.49240 0.92017 0.02700
C 	C 	0.66970 0.50150 0.84919 -0.01800
C 	C 	0.59890 0.37900 0.81404 0.29100
C 	C 	0.82160 0.37970 0.45551 0.27000
C 	C 	0.87860 0.50760 0.42017 0.02800
C 	C 	0.83030 0.49850 0.34919 -0.01800
C 	C 	0.90110 0.62100 0.31404 0.29100
C 	C 	0.32160 0.12030 0.54449 0.26700
C 	C 	0.37860 0.99240 0.57983 0.03200
C 	C 	0.33030 0.00150 0.65081 -0.02600
C 	C 	0.40110 0.87900 0.68596 0.29500
C 	C 	0.17840 0.87970 0.04449 0.26600
C 	C 	0.12140 0.00760 0.07983 0.03600
C 	C 	0.16970 0.99850 0.15081 -0.02600
C 	C 	0.09890 0.12100 0.18596 0.29500
O 	O 	0.58140 0.69760 0.98354 -0.57200
O 	O 	0.82790 0.64360 0.95545 -0.46900
O 	O 	0.45230 0.48240 0.92609 -0.54300
O 	O 	0.61570 0.62670 0.82219 -0.50300
O 	O 	0.59970 0.26670 0.84402 -0.51700
O 	O 	0.54490 0.39080 0.75792 -0.56700
O 	O 	0.91860 0.30240 0.48354 -0.57200
O 	O 	0.67210 0.35640 0.45545 -0.47000
O 	O 	0.04770 0.51760 0.42609 -0.54400
O 	O 	0.88430 0.37330 0.32219 -0.50200
O 	O 	0.90030 0.73330 0.34402 -0.51500
O 	O 	0.95510 0.60920 0.25792 -0.56700
O 	O 	0.41860 0.19760 0.51646 -0.57200
O 	O 	0.17210 0.14360 0.54455 -0.47000
O 	O 	0.54770 0.98240 0.57391 -0.54300
O 	O 	0.38430 0.12670 0.67781 -0.50100
O 	O 	0.40030 0.76670 0.65598 -0.51700
O 	O 	0.45510 0.89080 0.74208 -0.56700
O 	O 	0.08140 0.80240 0.01646 -0.57100
O 	O 	0.32790 0.85640 0.04455 -0.47000
O 	O 	0.95230 0.01760 0.07391 -0.54800
O 	O 	0.11570 0.87330 0.17781 -0.50100
O 	O 	0.09970 0.23330 0.15598 -0.51600
O 	O 	0.04490 0.10920 0.24208 -0.56700
