data_crystal

_cell_length_a 9.07520
_cell_length_b 9.07520
_cell_length_c 27.01400
_cell_angle_alpha 90.00000
_cell_angle_beta  90.00000
_cell_angle_gamma 90.00000

_symmetry_space_group_name_	'P 1'
_symmetry_space_group_name_H-M	'P 1'

loop_
_symmetry_equiv_pos_as_xyz
  x,y,z

loop_
_atom_site_label
_atom_site_type_symbol
_atom_site_fract_x
_atom_site_fract_y
_atom_site_fract_z
_atom_site_charge
Cd	Cd	0.18155 0.62330 0.37496 1.13100
Cd	Cd	0.81845 0.37670 0.87496 1.13100
Cd	Cd	0.37670 0.18155 0.62496 1.13100
Cd	Cd	0.62330 0.81845 0.12496 1.13100
H 	H 	0.41500 0.18620 0.24350 0.13000
H 	H 	0.70720 0.47870 0.29660 0.10900
H 	H 	0.66010 0.08260 0.36210 0.11600
H 	H 	0.36450 0.96780 0.37480 -0.04600
H 	H 	0.34610 0.67700 0.26910 -0.00300
H 	H 	0.49260 0.88070 0.23840 -0.01700
H 	H 	0.69240 0.58560 0.22020 -0.05300
H 	H 	0.32660 0.59430 0.14500 0.00000
H 	H 	0.31080 0.38520 0.20300 0.01400
H 	H 	0.83480 0.53960 0.36530 -0.04900
H 	H 	0.09950 0.25460 0.42840 0.01100
H 	H 	0.90030 0.11770 0.38910 -0.00600
H 	H 	0.58500 0.81380 0.74350 0.13100
H 	H 	0.29280 0.52130 0.79660 0.10900
H 	H 	0.33990 0.91740 0.86210 0.11600
H 	H 	0.63550 0.03220 0.87480 -0.04600
H 	H 	0.65390 0.32300 0.76910 -0.00300
H 	H 	0.50740 0.11930 0.73840 -0.01700
H 	H 	0.30760 0.41440 0.72020 -0.05300
H 	H 	0.67340 0.40570 0.64500 0.00000
H 	H 	0.68920 0.61480 0.70300 0.01400
H 	H 	0.16520 0.46040 0.86530 -0.04900
H 	H 	0.90050 0.74540 0.92840 0.01100
H 	H 	0.09970 0.88230 0.88910 -0.00600
H 	H 	0.81380 0.41500 0.49350 0.13100
H 	H 	0.52130 0.70720 0.54660 0.10900
H 	H 	0.91740 0.66010 0.61210 0.11600
H 	H 	0.03220 0.36450 0.62480 -0.04600
H 	H 	0.32300 0.34610 0.51910 -0.00300
H 	H 	0.11930 0.49260 0.48840 -0.01700
H 	H 	0.41440 0.69240 0.47020 -0.05300
H 	H 	0.40570 0.32660 0.39500 0.00000
H 	H 	0.61480 0.31080 0.45300 0.01400
H 	H 	0.46040 0.83480 0.61530 -0.04900
H 	H 	0.74540 0.09950 0.67840 0.01100
H 	H 	0.88230 0.90030 0.63910 -0.00600
H 	H 	0.18620 0.58500 0.99350 0.12800
H 	H 	0.47870 0.29280 0.04660 0.10900
H 	H 	0.08260 0.33990 0.11210 0.11600
H 	H 	0.96780 0.63550 0.12480 -0.04600
H 	H 	0.67700 0.65390 0.01910 -0.00000
H 	H 	0.88070 0.50740 0.98840 -0.02100
H 	H 	0.58560 0.30760 0.97020 -0.05400
H 	H 	0.59430 0.67340 0.89500 0.00000
H 	H 	0.38520 0.68920 0.95300 0.01400
H 	H 	0.53960 0.16520 0.11530 -0.04900
H 	H 	0.25460 0.90050 0.17840 0.01100
H 	H 	0.11770 0.09970 0.13910 -0.00600
C 	C 	0.52630 0.11580 0.30340 0.21000
C 	C 	0.48710 0.21170 0.26640 -0.29800
C 	C 	0.55640 0.34610 0.26380 0.20200
C 	C 	0.66380 0.38590 0.29787 -0.27800
C 	C 	0.70550 0.28420 0.33409 0.20500
C 	C 	0.63490 0.14940 0.33740 -0.28500
C 	C 	0.37770 0.92010 0.34470 0.09300
C 	C 	0.36840 0.76190 0.28680 -0.03900
C 	C 	0.44900 0.87380 0.26950 0.02000
C 	C 	0.59930 0.56160 0.20830 0.10000
C 	C 	0.39930 0.56590 0.16720 -0.01300
C 	C 	0.38950 0.45010 0.19960 0.00100
C 	C 	0.87700 0.45200 0.37620 0.06800
C 	C 	0.02120 0.29550 0.41090 -0.04600
C 	C 	0.91210 0.21950 0.38880 0.01100
C 	C 	0.47370 0.88420 0.80340 0.21000
C 	C 	0.51290 0.78830 0.76640 -0.29800
C 	C 	0.44360 0.65390 0.76380 0.20200
C 	C 	0.33620 0.61410 0.79787 -0.27800
C 	C 	0.29450 0.71580 0.83409 0.20500
C 	C 	0.36510 0.85060 0.83740 -0.28500
C 	C 	0.62230 0.07990 0.84470 0.09300
C 	C 	0.63160 0.23810 0.78680 -0.03900
C 	C 	0.55100 0.12620 0.76950 0.02000
C 	C 	0.40070 0.43840 0.70830 0.10000
C 	C 	0.60070 0.43410 0.66720 -0.01300
C 	C 	0.61050 0.54990 0.69960 0.00100
C 	C 	0.12300 0.54800 0.87620 0.06800
C 	C 	0.97880 0.70450 0.91090 -0.04600
C 	C 	0.08790 0.78050 0.88880 0.01200
C 	C 	0.88420 0.52630 0.55340 0.21000
C 	C 	0.78830 0.48710 0.51640 -0.29800
C 	C 	0.65390 0.55640 0.51380 0.20200
C 	C 	0.61410 0.66380 0.54787 -0.27800
C 	C 	0.71580 0.70550 0.58409 0.20500
C 	C 	0.85060 0.63490 0.58740 -0.28500
C 	C 	0.07990 0.37770 0.59470 0.09300
C 	C 	0.23810 0.36840 0.53680 -0.03900
C 	C 	0.12620 0.44900 0.51950 0.02000
C 	C 	0.43840 0.59930 0.45830 0.10000
C 	C 	0.43410 0.39930 0.41720 -0.01300
C 	C 	0.54990 0.38950 0.44960 0.00100
C 	C 	0.54800 0.87700 0.62620 0.06800
C 	C 	0.70450 0.02120 0.66090 -0.04600
C 	C 	0.78050 0.91210 0.63880 0.01200
C 	C 	0.11580 0.47370 0.05340 0.20800
C 	C 	0.21170 0.51290 0.01640 -0.29400
C 	C 	0.34610 0.44360 0.01380 0.20300
C 	C 	0.38590 0.33620 0.04787 -0.27800
C 	C 	0.28420 0.29450 0.08409 0.20500
C 	C 	0.14940 0.36510 0.08740 -0.28400
C 	C 	0.92010 0.62230 0.09470 0.09300
C 	C 	0.76190 0.63160 0.03680 -0.04300
C 	C 	0.87380 0.55100 0.01950 0.02800
C 	C 	0.56160 0.40070 0.95830 0.09900
C 	C 	0.56590 0.60070 0.91720 -0.01300
C 	C 	0.45010 0.61050 0.94960 0.00100
C 	C 	0.45200 0.12300 0.12620 0.06800
C 	C 	0.29550 0.97880 0.16090 -0.04600
C 	C 	0.21950 0.08790 0.13880 0.01200
N 	N 	0.32350 0.78950 0.33397 -0.27500
N 	N 	0.45450 0.97590 0.30647 -0.17300
N 	N 	0.53270 0.63290 0.17289 -0.26800
N 	N 	0.51710 0.44870 0.22569 -0.16700
N 	N 	0.99730 0.44650 0.40325 -0.23900
N 	N 	0.82140 0.31930 0.36595 -0.16800
N 	N 	0.67650 0.21050 0.83397 -0.27500
N 	N 	0.54550 0.02410 0.80647 -0.17300
N 	N 	0.46730 0.36710 0.67289 -0.26800
N 	N 	0.48290 0.55130 0.72569 -0.16700
N 	N 	0.00270 0.55350 0.90325 -0.23900
N 	N 	0.17860 0.68070 0.86595 -0.16800
N 	N 	0.21050 0.32350 0.58397 -0.27500
N 	N 	0.02410 0.45450 0.55647 -0.17300
N 	N 	0.36710 0.53270 0.42289 -0.26800
N 	N 	0.55130 0.51710 0.47569 -0.16700
N 	N 	0.55350 0.99730 0.65325 -0.23900
N 	N 	0.68070 0.82140 0.61595 -0.16800
N 	N 	0.78950 0.67650 0.08397 -0.27400
N 	N 	0.97590 0.54550 0.05647 -0.17300
N 	N 	0.63290 0.46730 0.92289 -0.26800
N 	N 	0.44870 0.48290 0.97569 -0.16800
N 	N 	0.44650 0.00270 0.15325 -0.23900
N 	N 	0.31930 0.17860 0.11595 -0.16800
