data_crystal

_cell_length_a 9.07230
_cell_length_b 9.07230
_cell_length_c 27.01000
_cell_angle_alpha 90.00000
_cell_angle_beta  90.00000
_cell_angle_gamma 90.00000

_symmetry_space_group_name_	'P 1'
_symmetry_space_group_name_H-M	'P 1'

loop_
_symmetry_equiv_pos_as_xyz
  x,y,z

loop_
_atom_site_label
_atom_site_type_symbol
_atom_site_fract_x
_atom_site_fract_y
_atom_site_fract_z
_atom_site_charge
Cd	Cd	0.12298 0.68143 0.07739 1.13300
Cd	Cd	0.87702 0.31857 0.57739 1.13300
Cd	Cd	0.31857 0.12298 0.82739 1.13200
Cd	Cd	0.68143 0.87702 0.32739 1.13100
H 	H 	0.58340 0.16020 0.06490 0.11400
H 	H 	0.97840 0.20810 0.99910 0.10200
H 	H 	0.68710 0.91480 0.94600 0.12700
H 	H 	0.46760 0.86490 0.07770 -0.04600
H 	H 	0.17560 0.84830 0.97160 -0.00000
H 	H 	0.38210 0.99170 0.94060 -0.01500
H 	H 	0.08680 0.19180 0.92280 -0.05300
H 	H 	0.09240 0.82710 0.84720 -0.00100
H 	H 	0.88660 0.80870 0.90540 0.01500
H 	H 	0.04000 0.33440 0.06840 -0.05500
H 	H 	0.75590 0.59790 0.13150 0.00700
H 	H 	0.61680 0.40210 0.09180 -0.00200
H 	H 	0.41660 0.83980 0.56490 0.11400
H 	H 	0.02160 0.79190 0.49910 0.10900
H 	H 	0.31290 0.08520 0.44600 0.12700
H 	H 	0.53240 0.13510 0.57770 -0.04600
H 	H 	0.82440 0.15170 0.47160 -0.00000
H 	H 	0.61790 0.00830 0.44060 -0.01500
H 	H 	0.91320 0.80820 0.42280 -0.05300
H 	H 	0.90760 0.17290 0.34720 -0.00100
H 	H 	0.11340 0.19130 0.40540 0.01500
H 	H 	0.96000 0.66560 0.56840 -0.05500
H 	H 	0.24410 0.40210 0.63150 0.00700
H 	H 	0.38320 0.59790 0.59180 -0.00200
H 	H 	0.83980 0.58340 0.81490 0.11400
H 	H 	0.79190 0.97840 0.74910 0.10900
H 	H 	0.08520 0.68710 0.69600 0.12700
H 	H 	0.13510 0.46760 0.82770 -0.04600
H 	H 	0.15170 0.17560 0.72160 -0.00000
H 	H 	0.00830 0.38210 0.69060 -0.01500
H 	H 	0.80820 0.08680 0.67280 -0.05300
H 	H 	0.17290 0.09240 0.59720 -0.00100
H 	H 	0.19130 0.88660 0.65540 0.01500
H 	H 	0.66560 0.04000 0.81840 -0.05500
H 	H 	0.40210 0.75590 0.88150 0.00600
H 	H 	0.59790 0.61680 0.84180 -0.00300
H 	H 	0.16020 0.41660 0.31490 0.11400
H 	H 	0.20810 0.02160 0.24910 0.10900
H 	H 	0.91480 0.31290 0.19600 0.12700
H 	H 	0.86490 0.53240 0.32770 -0.04600
H 	H 	0.84830 0.82440 0.22160 -0.00000
H 	H 	0.99170 0.61790 0.19060 -0.01500
H 	H 	0.19180 0.91320 0.17280 -0.05300
H 	H 	0.82710 0.90760 0.09720 -0.00000
H 	H 	0.80870 0.11340 0.15540 0.01400
H 	H 	0.33440 0.96000 0.31840 -0.05500
H 	H 	0.59790 0.24410 0.38150 0.00700
H 	H 	0.40210 0.38320 0.34180 -0.00200
C 	C 	0.61600 0.02620 0.00629 0.19900
C 	C 	0.64990 0.13470 0.04016 -0.27800
C 	C 	0.78480 0.20500 0.03658 0.19800
C 	C 	0.88590 0.16400 0.00049 -0.26400
C 	C 	0.84660 0.05620 0.96659 0.18900
C 	C 	0.71250 0.98670 0.96894 -0.28300
C 	C 	0.42020 0.87790 0.04753 0.09400
C 	C 	0.26120 0.86950 0.98912 -0.04500
C 	C 	0.37430 0.94900 0.97174 0.02000
C 	C 	0.06240 0.09880 0.91093 0.09600
C 	C 	0.06490 0.89930 0.86986 -0.00700
C 	C 	0.95060 0.88810 0.90201 -0.00100
C 	C 	0.95230 0.37680 0.07902 0.07400
C 	C 	0.79620 0.52010 0.11369 -0.02900
C 	C 	0.71880 0.41290 0.09167 -0.00100
C 	C 	0.38400 0.97380 0.50629 0.19700
C 	C 	0.35010 0.86530 0.54016 -0.28000
C 	C 	0.21520 0.79500 0.53658 0.20200
C 	C 	0.11410 0.83600 0.50049 -0.27700
C 	C 	0.15340 0.94380 0.46659 0.19600
C 	C 	0.28750 0.01330 0.46894 -0.28400
C 	C 	0.57980 0.12210 0.54753 0.09300
C 	C 	0.73880 0.13050 0.48912 -0.04300
C 	C 	0.62570 0.05100 0.47174 0.02100
C 	C 	0.93760 0.90120 0.41093 0.09600
C 	C 	0.93510 0.10070 0.36986 -0.00800
C 	C 	0.04940 0.11190 0.40201 0.00000
C 	C 	0.04770 0.62320 0.57902 0.07400
C 	C 	0.20380 0.47990 0.61369 -0.03000
C 	C 	0.28120 0.58710 0.59167 -0.00100
C 	C 	0.97380 0.61600 0.75629 0.19600
C 	C 	0.86530 0.64990 0.79016 -0.27900
C 	C 	0.79500 0.78480 0.78658 0.20200
C 	C 	0.83600 0.88590 0.75049 -0.27600
C 	C 	0.94380 0.84660 0.71659 0.19500
C 	C 	0.01330 0.71250 0.71894 -0.28300
C 	C 	0.12210 0.42020 0.79753 0.09300
C 	C 	0.13050 0.26120 0.73912 -0.04300
C 	C 	0.05100 0.37430 0.72174 0.02100
C 	C 	0.90120 0.06240 0.66093 0.09600
C 	C 	0.10070 0.06490 0.61986 -0.00800
C 	C 	0.11190 0.95060 0.65201 0.00100
C 	C 	0.62320 0.95230 0.82902 0.07400
C 	C 	0.47990 0.79620 0.86369 -0.03000
C 	C 	0.58710 0.71880 0.84167 -0.00100
C 	C 	0.02620 0.38400 0.25629 0.19700
C 	C 	0.13470 0.35010 0.29016 -0.27900
C 	C 	0.20500 0.21520 0.28658 0.20200
C 	C 	0.16400 0.11410 0.25049 -0.27600
C 	C 	0.05620 0.15340 0.21659 0.19600
C 	C 	0.98670 0.28750 0.21894 -0.28300
C 	C 	0.87790 0.57980 0.29753 0.09300
C 	C 	0.86950 0.73880 0.23912 -0.04300
C 	C 	0.94900 0.62570 0.22174 0.02100
C 	C 	0.09880 0.93760 0.16093 0.09500
C 	C 	0.89930 0.93510 0.11986 -0.00900
C 	C 	0.88810 0.04940 0.15201 0.00100
C 	C 	0.37680 0.04770 0.32902 0.07400
C 	C 	0.52010 0.20380 0.36369 -0.03000
C 	C 	0.41290 0.28120 0.34167 -0.00100
N 	N 	0.28990 0.82400 0.03672 -0.27400
N 	N 	0.47630 0.95460 0.00915 -0.16900
N 	N 	0.13360 0.03190 0.87564 -0.27000
N 	N 	0.94820 0.01680 0.92843 -0.16600
N 	N 	0.94540 0.49730 0.10586 -0.24300
N 	N 	0.81910 0.32190 0.06874 -0.16500
N 	N 	0.71010 0.17600 0.53672 -0.27400
N 	N 	0.52370 0.04540 0.50915 -0.16900
N 	N 	0.86640 0.96810 0.37564 -0.27000
N 	N 	0.05180 0.98320 0.42843 -0.16700
N 	N 	0.05460 0.50270 0.60586 -0.24300
N 	N 	0.18090 0.67810 0.56874 -0.16600
N 	N 	0.17600 0.28990 0.78672 -0.27400
N 	N 	0.04540 0.47630 0.75915 -0.16900
N 	N 	0.96810 0.13360 0.62564 -0.27000
N 	N 	0.98320 0.94820 0.67843 -0.16700
N 	N 	0.50270 0.94540 0.85586 -0.24300
N 	N 	0.67810 0.81910 0.81874 -0.16600
N 	N 	0.82400 0.71010 0.28672 -0.27400
N 	N 	0.95460 0.52370 0.25915 -0.16900
N 	N 	0.03190 0.86640 0.12564 -0.27000
N 	N 	0.01680 0.05180 0.17843 -0.16700
N 	N 	0.49730 0.05460 0.35586 -0.24300
N 	N 	0.32190 0.18090 0.31874 -0.16600
