data_crystal

_cell_length_a 8.37800
_cell_length_b 14.95890
_cell_length_c 17.57200
_cell_angle_alpha 90.00000
_cell_angle_beta  90.00000
_cell_angle_gamma 98.34750

_symmetry_space_group_name_	'P 1'
_symmetry_space_group_name_H-M	'P 1'

loop_
_symmetry_equiv_pos_as_xyz
  x,y,z

loop_
_atom_site_label
_atom_site_type_symbol
_atom_site_fract_x
_atom_site_fract_y
_atom_site_fract_z
_atom_site_charge
Co	Co	0.63013 0.27524 0.07816 1.06000
Co	Co	0.86987 0.22476 0.57816 1.06000
Co	Co	0.36987 0.72476 0.92184 1.06000
Co	Co	0.13013 0.77524 0.42184 1.06000
B 	B 	0.34110 0.14950 0.36410 0.90400
B 	B 	0.15890 0.35050 0.86410 0.90200
B 	B 	0.65890 0.85050 0.63590 0.90500
B 	B 	0.84110 0.64950 0.13590 0.90300
H 	H 	0.14110 0.22900 0.25810 -0.01000
H 	H 	0.61900 0.05380 0.34030 -0.01000
H 	H 	0.04600 0.08000 0.29700 -0.00700
H 	H 	0.25400 0.26800 0.12900 0.01100
H 	H 	0.12700 0.11600 0.48400 -0.04500
H 	H 	0.30300 0.34300 0.38000 -0.00900
H 	H 	0.93700 0.92000 0.32000 0.01900
H 	H 	0.85200 0.08600 0.42800 0.01300
H 	H 	0.10100 0.37700 0.47900 -0.01100
H 	H 	0.59000 0.18200 0.24800 -0.06900
H 	H 	0.50300 0.23400 0.49200 -0.04600
H 	H 	0.35400 0.97100 0.42400 -0.04000
H 	H 	0.35890 0.27100 0.75810 -0.01100
H 	H 	0.88100 0.44620 0.84030 -0.00900
H 	H 	0.45400 0.42000 0.79700 -0.00700
H 	H 	0.24600 0.23200 0.62900 0.01000
H 	H 	0.37300 0.38400 0.98400 -0.04600
H 	H 	0.19700 0.15700 0.88000 -0.00900
H 	H 	0.56300 0.58000 0.82000 0.01800
H 	H 	0.64800 0.41400 0.92800 0.01300
H 	H 	0.39900 0.12300 0.97900 -0.01100
H 	H 	0.91000 0.31800 0.74800 -0.06800
H 	H 	0.99700 0.26600 0.99200 -0.04600
H 	H 	0.14600 0.52900 0.92400 -0.04100
H 	H 	0.85890 0.77100 0.74190 -0.01000
H 	H 	0.38100 0.94620 0.65970 -0.01000
H 	H 	0.95400 0.92000 0.70300 -0.00700
H 	H 	0.74600 0.73200 0.87100 0.01100
H 	H 	0.87300 0.88400 0.51600 -0.04500
H 	H 	0.69700 0.65700 0.62000 -0.00900
H 	H 	0.06300 0.08000 0.68000 0.01900
H 	H 	0.14800 0.91400 0.57200 0.01300
H 	H 	0.89900 0.62300 0.52100 -0.01100
H 	H 	0.41000 0.81800 0.75200 -0.06900
H 	H 	0.49700 0.76600 0.50800 -0.04600
H 	H 	0.64600 0.02900 0.57600 -0.04000
H 	H 	0.64110 0.72900 0.24190 -0.01100
H 	H 	0.11900 0.55380 0.15970 -0.00900
H 	H 	0.54600 0.58000 0.20300 -0.00700
H 	H 	0.75400 0.76800 0.37100 0.01000
H 	H 	0.62700 0.61600 0.01600 -0.04600
H 	H 	0.80300 0.84300 0.12000 -0.00900
H 	H 	0.43700 0.42000 0.18000 0.01800
H 	H 	0.35200 0.58600 0.07200 0.01300
H 	H 	0.60100 0.87700 0.02100 -0.01100
H 	H 	0.09000 0.68200 0.25200 -0.06800
H 	H 	0.00300 0.73400 0.00800 -0.04600
H 	H 	0.85400 0.47100 0.07600 -0.04100
C 	C 	0.23960 0.29950 0.41270 0.03500
C 	C 	0.24510 0.22410 0.24180 0.03300
C 	C 	0.30680 0.24640 0.17190 -0.03300
C 	C 	0.49430 0.19840 0.23700 0.13200
C 	C 	0.13840 0.17590 0.46980 0.13400
C 	C 	0.56650 0.19170 0.46560 0.09800
C 	C 	0.09460 0.03400 0.32110 0.03300
C 	C 	0.03370 0.94700 0.33760 -0.03100
C 	C 	0.74710 0.11120 0.43120 -0.02200
C 	C 	0.62380 0.09310 0.38160 0.03400
C 	C 	0.13280 0.31810 0.46710 -0.03300
C 	C 	0.26170 0.97660 0.39420 0.11500
C 	C 	0.26040 0.20050 0.91270 0.03400
C 	C 	0.25490 0.27590 0.74180 0.03300
C 	C 	0.19320 0.25360 0.67190 -0.03300
C 	C 	0.00570 0.30160 0.73700 0.13000
C 	C 	0.36160 0.32410 0.96980 0.13400
C 	C 	0.93350 0.30830 0.96560 0.09800
C 	C 	0.40540 0.46600 0.82110 0.03100
C 	C 	0.46630 0.55300 0.83760 -0.02800
C 	C 	0.75290 0.38880 0.93120 -0.02200
C 	C 	0.87620 0.40690 0.88160 0.03400
C 	C 	0.36720 0.18190 0.96710 -0.03300
C 	C 	0.23830 0.52340 0.89420 0.11500
C 	C 	0.76040 0.70050 0.58730 0.03500
C 	C 	0.75490 0.77590 0.75820 0.03300
C 	C 	0.69320 0.75360 0.82810 -0.03300
C 	C 	0.50570 0.80160 0.76300 0.13200
C 	C 	0.86160 0.82410 0.53020 0.13400
C 	C 	0.43350 0.80830 0.53440 0.09800
C 	C 	0.90540 0.96600 0.67890 0.03300
C 	C 	0.96630 0.05300 0.66240 -0.03100
C 	C 	0.25290 0.88880 0.56880 -0.02200
C 	C 	0.37620 0.90690 0.61840 0.03400
C 	C 	0.86720 0.68190 0.53290 -0.03300
C 	C 	0.73830 0.02340 0.60580 0.11500
C 	C 	0.73960 0.79950 0.08730 0.03400
C 	C 	0.74510 0.72410 0.25820 0.03300
C 	C 	0.80680 0.74640 0.32810 -0.03300
C 	C 	0.99430 0.69840 0.26300 0.13000
C 	C 	0.63840 0.67590 0.03020 0.13400
C 	C 	0.06650 0.69170 0.03440 0.09800
C 	C 	0.59460 0.53400 0.17890 0.03100
C 	C 	0.53370 0.44700 0.16240 -0.02800
C 	C 	0.24710 0.61120 0.06880 -0.02200
C 	C 	0.12380 0.59310 0.11840 0.03400
C 	C 	0.63280 0.81810 0.03290 -0.03300
C 	C 	0.76170 0.47660 0.10580 0.11500
N 	N 	0.24210 0.20750 0.41400 -0.30500
N 	N 	0.50530 0.14410 0.40330 -0.30100
N 	N 	0.24220 0.05370 0.35780 -0.30300
N 	N 	0.46570 0.22980 0.16870 -0.26300
N 	N 	0.36470 0.19270 0.28470 -0.31000
N 	N 	0.71330 0.17430 0.48410 -0.25500
N 	N 	0.06880 0.23890 0.50290 -0.26000
N 	N 	0.13930 0.91010 0.38320 -0.25600
N 	N 	0.25790 0.29250 0.91400 -0.30500
N 	N 	0.99470 0.35590 0.90330 -0.30000
N 	N 	0.25780 0.44630 0.85780 -0.30300
N 	N 	0.03430 0.27020 0.66870 -0.26300
N 	N 	0.13530 0.30730 0.78470 -0.31000
N 	N 	0.78670 0.32570 0.98410 -0.25400
N 	N 	0.43120 0.26110 0.00290 -0.26000
N 	N 	0.36070 0.58990 0.88320 -0.25600
N 	N 	0.75790 0.79250 0.58600 -0.30500
N 	N 	0.49470 0.85590 0.59670 -0.30100
N 	N 	0.75780 0.94630 0.64220 -0.30300
N 	N 	0.53430 0.77020 0.83130 -0.26300
N 	N 	0.63530 0.80730 0.71530 -0.31000
N 	N 	0.28670 0.82570 0.51590 -0.25500
N 	N 	0.93120 0.76110 0.49710 -0.26000
N 	N 	0.86070 0.08990 0.61680 -0.25600
N 	N 	0.74210 0.70750 0.08600 -0.30500
N 	N 	0.00530 0.64410 0.09670 -0.30000
N 	N 	0.74220 0.55370 0.14220 -0.30300
N 	N 	0.96570 0.72980 0.33130 -0.26300
N 	N 	0.86470 0.69270 0.21530 -0.31000
N 	N 	0.21330 0.67430 0.01590 -0.25400
N 	N 	0.56880 0.73890 0.99710 -0.26000
N 	N 	0.63930 0.41010 0.11680 -0.25600
