data_crystal

_cell_length_a 9.03800
_cell_length_b 9.03800
_cell_length_c 18.97500
_cell_angle_alpha 90.00000
_cell_angle_beta  90.00000
_cell_angle_gamma 120.00000

_symmetry_space_group_name_	'P 1'
_symmetry_space_group_name_H-M	'P 1'

loop_
_symmetry_equiv_pos_as_xyz
  x,y,z

loop_
_atom_site_label
_atom_site_type_symbol
_atom_site_fract_x
_atom_site_fract_y
_atom_site_fract_z
_atom_site_charge
C 	C 	0.76920 0.99840 0.07780 0.40400
O 	O 	0.85350 0.11200 0.12520 -0.48100
C 	C 	0.63110 0.99690 0.03810 0.29900
O 	O 	0.81370 0.88770 0.06950 -0.28000
C 	C 	0.00160 0.77080 0.74447 0.10200
O 	O 	0.88800 0.74150 0.79187 -0.20800
C 	C 	0.00310 0.63420 0.70477 -0.10300
O 	O 	0.11230 0.92600 0.73617 -0.27800
C 	C 	0.22920 0.23080 0.41113 0.33000
O 	O 	0.25850 0.14650 0.45853 -0.51500
C 	C 	0.36580 0.36890 0.37143 -0.05300
O 	O 	0.07400 0.18630 0.40283 -0.51800
C 	C 	0.23080 0.00160 0.07780 0.11300
O 	O 	0.14650 0.88800 0.12520 -0.29100
C 	C 	0.36890 0.00310 0.03810 -0.13600
O 	O 	0.18630 0.11230 0.06950 -0.43800
C 	C 	0.99840 0.22920 0.74447 0.45000
O 	O 	0.11200 0.25850 0.79187 -0.60000
C 	C 	0.99690 0.36580 0.70477 0.28700
O 	O 	0.88770 0.07400 0.73617 -0.42500
C 	C 	0.77080 0.76920 0.41113 0.27800
O 	O 	0.74150 0.85350 0.45853 -0.31400
C 	C 	0.63420 0.63110 0.37143 -0.00700
O 	O 	0.92600 0.81370 0.40283 -0.21800
C 	C 	0.99840 0.76920 0.58887 0.40300
O 	O 	0.11200 0.85350 0.54147 -0.48100
C 	C 	0.99690 0.63110 0.62857 0.29900
O 	O 	0.88770 0.81370 0.59717 -0.28000
C 	C 	0.77080 0.00160 0.92220 0.10100
O 	O 	0.74150 0.88800 0.87480 -0.20700
C 	C 	0.63420 0.00310 0.96190 -0.10400
O 	O 	0.92600 0.11230 0.93050 -0.28000
C 	C 	0.23080 0.22920 0.25553 0.33000
O 	O 	0.14650 0.25850 0.20813 -0.51400
C 	C 	0.36890 0.36580 0.29523 -0.05300
O 	O 	0.18630 0.07400 0.26383 -0.51800
C 	C 	0.00160 0.23080 0.58887 0.11200
O 	O 	0.88800 0.14650 0.54147 -0.29100
C 	C 	0.00310 0.36890 0.62857 -0.13700
O 	O 	0.11230 0.18630 0.59717 -0.43900
C 	C 	0.22920 0.99840 0.92220 0.45100
O 	O 	0.25850 0.11200 0.87480 -0.60000
C 	C 	0.36580 0.99690 0.96190 0.28600
O 	O 	0.07400 0.88770 0.93050 -0.42400
C 	C 	0.76920 0.77080 0.25553 0.27800
O 	O 	0.85350 0.74150 0.20813 -0.31500
C 	C 	0.63110 0.63420 0.29523 -0.00700
O 	O 	0.81370 0.92600 0.26383 -0.21800
In	In	0.00000 0.00000 0.16667 1.91200
In	In	-0.00000 0.00000 0.83333 1.91100
In	In	0.00000 0.00000 0.50000 1.91200
C 	C 	0.50000 0.00000 0.07150 -0.25500
H 	H 	0.50000 0.00000 0.12150 0.09100
C 	C 	-0.00000 0.50000 0.73817 -0.27000
H 	H 	0.00000 0.50000 0.78817 0.09700
C 	C 	0.50000 0.50000 0.40483 0.00900
H 	H 	0.50000 0.50000 0.45483 0.06600
C 	C 	0.00000 0.50000 0.59517 -0.25600
H 	H 	-0.00000 0.50000 0.54517 0.09100
C 	C 	0.50000 0.00000 0.92850 -0.27000
H 	H 	0.50000 -0.00000 0.87850 0.09700
C 	C 	0.50000 0.50000 0.26183 0.00900
H 	H 	0.50000 0.50000 0.21183 0.06600
