data_crystal

_audit_creation_method 'AiiDA-DDEC plugin'

_cell_length_a        32.89005
_cell_length_b        32.90282
_cell_length_c        11.68271

_cell_angle_alpha     90.03070
_cell_angle_beta     89.98501
_cell_angle_gamma     120.03563

_symmetry_space_group_name_Hall 'P 1'
_symmetry_space_group_name_H-M  'P 1'

loop_
_symmetry_equiv_pos_as_xyz
 'x,y,z'

loop_
_atom_site_label
_atom_site_type_symbol
_atom_site_fract_x
_atom_site_fract_y
_atom_site_fract_z
_atom_site_charge
Co         Co      0.61329   0.10814   0.23633   1.01049
Co         Co      0.55389   0.10844   0.48173   1.05535
Co         Co      0.55793   0.83779   0.56865   1.01069
Co         Co      0.89172   0.38705   0.23641   1.01283
Co         Co      0.49500   0.10812   0.23637   1.01322
Co         Co      0.82831   0.05357   0.90066   1.01289
Co         Co      0.89140   0.44534   0.48165   1.05515
Co         Co      0.88749   0.11220   0.14563   1.05322
Co         Co      0.89165   0.50535   0.23630   1.01155
Co         Co      0.16169   0.72020   0.56851   1.01356
Co         Co      0.61331   0.50436   0.23653   1.01073
Co         Co      0.94647   0.77510   0.90100   1.01073
Co         Co      0.55404   0.44594   0.48198   1.04873
Co         Co      0.88741   0.77536   0.14567   1.05323
Co         Co      0.49574   0.38659   0.23654   1.01225
Co         Co      0.27993   0.44184   0.56852   1.01201
Co         Co      0.22491   0.17196   0.90143   1.01086
Co         Co      0.22459   0.11212   0.14568   1.05311
Co         Co      0.16225   0.44213   0.56854   1.01044
Co         Co      0.94676   0.17184   0.90143   1.01099
Co         Co      0.28004   0.83797   0.56884   1.01110
Co         Co      0.22522   0.05369   0.90076   1.01254
Co         Co      0.55760   0.71992   0.56846   1.01120
Co         Co      0.82797   0.77454   0.90074   1.01353
Co         Co      0.22084   0.44129   0.81369   1.04836
Co         Co      0.55869   0.77912   0.81359   1.04862
Co         Co      0.22080   0.77900   0.81362   1.05559
H          H       0.67868   0.23948   0.62207   0.13856
H          H       0.78066   0.13397   0.26132   0.13332
H          H       0.63842   0.07098   0.02437   0.09865
H          H       0.49088   0.10694   0.66888   0.10539
H          H       0.70614   0.06126   0.95736   0.13162
H          H       0.71167   0.14427   0.31195   0.09368
H          H       0.48875   0.10823   0.88422   0.12197
H          H       0.76048   0.32080   0.62215   0.14169
H          H       0.61975   0.10847   0.88467   0.12131
H          H       0.61647   0.10703   0.66912   0.10475
H          H       0.53242   0.97971   0.59575   0.13642
H          H       0.59572   0.90086   0.35853   0.09872
H          H       0.60570   0.97847   0.29243   0.13271
H          H       0.52214   0.90046   0.64592   0.09646
H          H       0.57520   0.15049   0.30313   0.36414
H          H       0.76035   0.43890   0.62220   0.14121
H          H       0.86578   0.64672   0.26170   0.13347
H          H       0.92901   0.56775   0.02493   0.09853
H          H       0.89305   0.38400   0.66883   0.10524
H          H       0.93886   0.64521   0.95813   0.13211
H          H       0.85562   0.56757   0.31236   0.09416
H          H       0.89187   0.38068   0.88419   0.12449
H          H       0.67915   0.43950   0.62313   0.13728
H          H       0.89161   0.51137   0.88472   0.12204
H          H       0.89298   0.50946   0.66916   0.10479
H          H       0.02013   0.55254   0.59542   0.13629
H          H       0.09920   0.69485   0.35881   0.09903
H          H       0.02159   0.62707   0.29223   0.13268
H          H       0.09936   0.62172   0.64633   0.09438
H          H       0.84930   0.42481   0.30317   0.36417
H          H       0.56063   0.32090   0.62284   0.13969
H          H       0.35344   0.21927   0.26273   0.13344
H          H       0.43270   0.36150   0.02605   0.09862
H          H       0.61737   0.50809   0.66919   0.10690
H          H       0.35495   0.29393   0.95959   0.13289
H          H       0.43281   0.28811   0.31304   0.09380
H          H       0.61977   0.51123   0.88526   0.12293
H          H       0.56073   0.23948   0.62247   0.14020
H          H       0.48882   0.38031   0.88532   0.12321
H          H       0.49187   0.38266   0.66925   0.10670
H          H       0.44752   0.46741   0.59433   0.13506
H          H       0.30506   0.40417   0.35839   0.09923
H          H       0.37262   0.39434   0.29098   0.13272
H          H       0.37863   0.47768   0.64545   0.09875
H          H       0.57574   0.42433   0.30370   0.36636
H          H       0.86564   0.21922   0.26244   0.13431
H          H       0.92899   0.36164   0.02661   0.09932
H          H       0.93878   0.29407   0.95927   0.13248
H          H       0.85553   0.28812   0.31378   0.09411
H          H       0.02003   0.46732   0.59411   0.13367
H          H       0.09918   0.40403   0.35822   0.09439
H          H       0.02187   0.39434   0.29076   0.13173
H          H       0.09921   0.47746   0.64552   0.09452
H          H       0.35326   0.13401   0.26161   0.13299
H          H       0.43266   0.07094   0.02572   0.09478
H          H       0.35531   0.06126   0.95803   0.13232
H          H       0.43245   0.14427   0.31303   0.09380
H          H       0.44727   0.97989   0.59407   0.13716
H          H       0.30488   0.90043   0.35773   0.09848
H          H       0.37253   0.97792   0.29058   0.13191
H          H       0.37822   0.90060   0.64512   0.09443
H          H       0.78070   0.64669   0.26156   0.13320
H          H       0.63822   0.56711   0.02549   0.09901
H          H       0.70592   0.64455   0.95804   0.13200
H          H       0.71182   0.56730   0.31240   0.09384
H          H       0.53246   0.55260   0.59462   0.13517
H          H       0.59572   0.69491   0.35848   0.09867
H          H       0.60559   0.62738   0.29129   0.13276
H          H       0.52219   0.62147   0.64552   0.09835
H          H       0.34531   0.57295   0.95639   0.14053
H          H       0.15855   0.44229   0.00105   0.10638
H          H       0.15562   0.44187   0.21720   0.12296
H          H       0.42693   0.65454   0.95634   0.14070
H          H       0.28646   0.44184   0.21710   0.12258
H          H       0.28396   0.44226   0.00095   0.10678
H          H       0.19955   0.31370   0.92634   0.13263
H          H       0.26221   0.23390   0.69055   0.09868
H          H       0.27210   0.31126   0.62271   0.13265
H          H       0.18923   0.23453   0.97802   0.09508
H          H       0.24253   0.48473   0.63547   0.36640
H          H       0.42692   0.77235   0.95638   0.14074
H          H       0.55768   0.71605   0.00106   0.10629
H          H       0.55817   0.71368   0.21720   0.12298
H          H       0.34527   0.77201   0.95618   0.13816
H          H       0.55822   0.84450   0.21700   0.12308
H          H       0.55768   0.84144   0.00084   0.10649
H          H       0.68662   0.88586   0.92678   0.13395
H          H       0.76575   0.02851   0.69167   0.09922
H          H       0.68862   0.96063   0.62340   0.13296
H          H       0.76547   0.95516   0.97908   0.09526
H          H       0.51493   0.75751   0.63572   0.36641
H          H       0.22782   0.65467   0.95557   0.14093
H          H       0.28296   0.84306   0.00123   0.10466
H          H       0.28639   0.84463   0.21675   0.12233
H          H       0.22751   0.57307   0.95603   0.13784
H          H       0.15537   0.71378   0.21590   0.12180
H          H       0.15731   0.71748   0.00058   0.10465
H          H       0.11394   0.80054   0.92620   0.13366
H          H       0.97139   0.73727   0.69044   0.09875
H          H       0.03912   0.72778   0.62267   0.13247
H          H       0.04481   0.81040   0.97814   0.09502
H          H       0.24197   0.75736   0.63590   0.36503
H          H       0.68639   0.80062   0.92642   0.13264
H          H       0.76576   0.73728   0.69148   0.09491
H          H       0.68868   0.72792   0.62288   0.13252
H          H       0.76519   0.81029   0.97902   0.09528
H          H       0.11412   0.31324   0.92683   0.13235
H          H       0.97165   0.23415   0.69057   0.09939
H          H       0.03946   0.31152   0.62332   0.13239
H          H       0.04488   0.23423   0.97805   0.09514
H          H       0.19927   0.88603   0.92756   0.13621
H          H       0.26274   0.02841   0.69141   0.09908
H          H       0.27229   0.96069   0.62411   0.13292
H          H       0.18960   0.95522   0.97922   0.09485
H          H       0.01222   0.90642   0.28793   0.14140
H          H       0.82425   0.77354   0.33234   0.10495
H          H       0.82201   0.77495   0.54772   0.12202
H          H       0.09375   0.98778   0.28761   0.14174
H          H       0.95303   0.77511   0.54855   0.12209
H          H       0.94973   0.77363   0.33285   0.10441
H          H       0.90847   0.81772   0.96651   0.36571
H          H       0.09337   0.10579   0.28879   0.13765
H          H       0.22638   0.05069   0.33277   0.10478
H          H       0.22506   0.04726   0.54819   0.12207
H          H       0.01205   0.10581   0.28860   0.13820
H          H       0.22493   0.17806   0.54856   0.12147
H          H       0.22628   0.17602   0.33282   0.10447
H          H       0.18230   0.09131   0.96640   0.36535
H          H       0.89399   0.98777   0.28730   0.14178
H          H       0.94977   0.17617   0.33289   0.10465
H          H       0.95312   0.17809   0.54857   0.12169
H          H       0.89390   0.90633   0.28744   0.13901
H          H       0.82203   0.04715   0.54780   0.12211
H          H       0.82423   0.05075   0.33245   0.10503
H          H       0.90886   0.09126   0.96629   0.36576
C          C       0.74830   0.09663   0.10556   0.01640
C          C       0.55363   0.10734   0.03073   0.60944
C          C       0.78883   0.08990   0.07408   0.58474
C          C       0.65501   0.18289   0.42003   0.59143
C          C       0.55380   0.10746   0.90162  -0.00291
C          C       0.70384   0.25298   0.55232  -0.11583
C          C       0.74977   0.12015   0.20676  -0.14674
C          C       0.67081   0.08479   0.07337   0.07538
C          C       0.51832   0.10680   0.72053   0.08761
C          C       0.69591   0.22856   0.44995  -0.13392
C          C       0.70803   0.07923   0.03707  -0.14962
C          C       0.71165   0.12534   0.23562   0.08159
C          C       0.51732   0.10742   0.83950  -0.15161
C          C       0.81679   0.34431   0.41935   0.59096
C          C       0.74682   0.29570   0.55230  -0.11736
C          C       0.77112   0.30347   0.44978  -0.13489
C          C       0.59037   0.10754   0.83974  -0.15204
C          C       0.58886   0.10689   0.72070   0.08887
C          C       0.57000   0.98494   0.44011   0.01746
C          C       0.57682   0.03221   0.40834   0.58526
C          C       0.54633   0.96276   0.54105  -0.15083
C          C       0.58187   0.91935   0.40769   0.07476
C          C       0.58754   0.96219   0.37177  -0.15080
C          C       0.54113   0.91944   0.56973   0.07990
C          C       0.90311   0.65180   0.10591   0.01561
C          C       0.89275   0.44645   0.03078   0.60913
C          C       0.90966   0.69902   0.07471   0.58439
C          C       0.81691   0.47213   0.41976   0.59074
C          C       0.89264   0.44648   0.90165  -0.00209
C          C       0.74692   0.45075   0.55274  -0.11807
C          C       0.87962   0.62970   0.20707  -0.14632
C          C       0.91516   0.58629   0.07384   0.07420
C          C       0.89319   0.41159   0.72050   0.08772
C          C       0.77134   0.46742   0.45041  -0.13570
C          C       0.92072   0.62908   0.03763  -0.14913
C          C       0.87451   0.58645   0.23598   0.08001
C          C       0.89267   0.41004   0.83949  -0.15459
C          C       0.65569   0.47261   0.42033   0.58974
C          C       0.70421   0.45102   0.55315  -0.11427
C          C       0.69646   0.46773   0.45092  -0.13406
C          C       0.89253   0.48292   0.83976  -0.15300
C          C       0.89310   0.48200   0.72070   0.08985
C          C       0.01502   0.58497   0.44003   0.01567
C          C       0.96765   0.54459   0.40843   0.58626
C          C       0.03715   0.58347   0.54100  -0.15009
C          C       0.08062   0.66251   0.40791   0.07587
C          C       0.03782   0.62526   0.37171  -0.14925
C          C       0.08041   0.62168   0.57005   0.08176
C          C       0.34834   0.25160   0.10698   0.01811
C          C       0.55346   0.44670   0.03094   0.60858
C          C       0.30103   0.21104   0.07505   0.58550
C          C       0.52752   0.34434   0.42013   0.58982
C          C       0.55384   0.44623   0.90184   0.00398
C          C       0.54893   0.29575   0.55305  -0.11720
C          C       0.37049   0.25011   0.20802  -0.14797
C          C       0.41410   0.32912   0.07500   0.07524
C          C       0.58962   0.48093   0.72115   0.09456
C          C       0.53229   0.30352   0.45073  -0.13402
C          C       0.37120   0.29196   0.03890  -0.15155
C          C       0.41389   0.28820   0.23682   0.08095
C          C       0.59064   0.48252   0.84017  -0.15343
C          C       0.52747   0.18295   0.41965   0.59069
C          C       0.54894   0.25291   0.55289  -0.11573
C          C       0.53225   0.22852   0.45049  -0.13530
C          C       0.51752   0.40942   0.84020  -0.15386
C          C       0.51906   0.41040   0.72117   0.09468
C          C       0.41524   0.43026   0.43829   0.01706
C          C       0.45581   0.42357   0.40667   0.58499
C          C       0.41667   0.45369   0.53966  -0.14982
C          C       0.33754   0.41808   0.40708   0.07515
C          C       0.37476   0.41258   0.37043  -0.15198
C          C       0.37853   0.45878   0.56897   0.07761
C          C       0.90308   0.25159   0.10679   0.01751
C          C       0.90975   0.21099   0.07503   0.58569
C          C       0.87953   0.25012   0.20799  -0.14891
C          C       0.91515   0.32923   0.07545   0.07499
C          C       0.92066   0.29201   0.03886  -0.14964
C          C       0.87446   0.28828   0.23731   0.08185
C          C       0.01524   0.43018   0.43830   0.01641
C          C       0.96820   0.42393   0.40648   0.58452
C          C       0.03719   0.45355   0.53972  -0.14742
C          C       0.08068   0.41797   0.40696   0.07788
C          C       0.03796   0.41249   0.37031  -0.14983
C          C       0.08041   0.45861   0.56900   0.08112
C          C       0.34839   0.09666   0.10598   0.01694
C          C       0.30115   0.09001   0.07420   0.58449
C          C       0.37037   0.12017   0.20730  -0.14564
C          C       0.41401   0.08468   0.07459   0.07948
C          C       0.37130   0.07922   0.03785  -0.14923
C          C       0.41362   0.12528   0.23666   0.08096
C          C       0.41491   0.98462   0.43824   0.01716
C          C       0.45564   0.03171   0.40646   0.58427
C          C       0.41635   0.96270   0.53962  -0.15082
C          C       0.33731   0.91905   0.40653   0.07492
C          C       0.37453   0.96183   0.37012  -0.15031
C          C       0.37821   0.91943   0.56869   0.08142
C          C       0.74821   0.65148   0.10593   0.01675
C          C       0.78871   0.69877   0.07423   0.58484
C          C       0.74977   0.62951   0.20713  -0.14677
C          C       0.67068   0.58573   0.07423   0.07481
C          C       0.70787   0.62852   0.03772  -0.15020
C          C       0.71170   0.58615   0.23612   0.08084
C          C       0.56969   0.58482   0.43859   0.01699
C          C       0.57641   0.54427   0.40686   0.58554
C          C       0.54621   0.58341   0.53987  -0.15101
C          C       0.58178   0.66246   0.40721   0.07587
C          C       0.58734   0.62526   0.37069  -0.15202
C          C       0.54109   0.62153   0.56906   0.07890
C          C       0.22028   0.44019   0.36284   0.60900
C          C       0.32218   0.51609   0.75416   0.59143
C          C       0.22060   0.44095   0.23369   0.00281
C          C       0.37058   0.58638   0.88684  -0.11802
C          C       0.18573   0.44175   0.05301   0.09507
C          C       0.36293   0.56180   0.78476  -0.13533
C          C       0.18427   0.44139   0.17206  -0.15340
C          C       0.48375   0.67749   0.75406   0.59003
C          C       0.41347   0.62923   0.88685  -0.11753
C          C       0.43801   0.63683   0.78478  -0.13462
C          C       0.25734   0.44138   0.17197  -0.15315
C          C       0.25626   0.44176   0.05294   0.09516
C          C       0.23657   0.31826   0.77034   0.01751
C          C       0.24338   0.36546   0.73821   0.58467
C          C       0.21320   0.29646   0.87188  -0.14815
C          C       0.24848   0.25261   0.73921   0.07645
C          C       0.25403   0.29530   0.70238  -0.15090
C          C       0.20805   0.25324   0.90141   0.08141
C          C       0.55981   0.77998   0.36277   0.60968
C          C       0.48383   0.80601   0.75421   0.59094
C          C       0.55911   0.77956   0.23362   0.00254
C          C       0.41351   0.78416   0.88678  -0.11812
C          C       0.55823   0.74379   0.05298   0.09478
C          C       0.43815   0.80116   0.78483  -0.13501
C          C       0.55865   0.74278   0.17202  -0.15356
C          C       0.32218   0.80587   0.75393   0.59084
C          C       0.37060   0.78406   0.88673  -0.11533
C          C       0.36300   0.80107   0.78480  -0.13401
C          C       0.55867   0.81584   0.17188  -0.15299
C          C       0.55823   0.81429   0.05285   0.09407
C          C       0.68187   0.91813   0.77075   0.01708
C          C       0.63477   0.87747   0.73833   0.58560
C          C       0.70371   0.91679   0.87243  -0.14906
C          C       0.74717   0.99602   0.74022   0.07577
C          C       0.70462   0.95864   0.70311  -0.15058
C          C       0.74676   0.95511   0.90232   0.08140
C          C       0.22030   0.77949   0.36267   0.60971
C          C       0.19403   0.67779   0.75369   0.59287
C          C       0.22043   0.77962   0.23353  -0.00240
C          C       0.21579   0.62933   0.88616  -0.11671
C          C       0.25538   0.81550   0.05273   0.08984
C          C       0.19878   0.63690   0.78417  -0.13541
C          C       0.25696   0.81621   0.17176  -0.15330
C          C       0.19370   0.51600   0.75416   0.59087
C          C       0.21567   0.58643   0.88639  -0.11556
C          C       0.19864   0.56175   0.78450  -0.13345
C          C       0.18391   0.74323   0.17127  -0.15237
C          C       0.18483   0.74500   0.05231   0.08814
C          C       0.08159   0.76351   0.77024   0.01826
C          C       0.12240   0.75732   0.73813   0.58362
C          C       0.08299   0.78675   0.87187  -0.14829
C          C       0.00384   0.75116   0.73920   0.07459
C          C       0.04114   0.74582   0.70235  -0.15080
C          C       0.04476   0.79165   0.90144   0.08147
C          C       0.68173   0.76356   0.77038   0.01698
C          C       0.63460   0.75701   0.73815   0.58440
C          C       0.70352   0.78680   0.87212  -0.14775
C          C       0.74711   0.75112   0.74001   0.07826
C          C       0.70457   0.74590   0.70271  -0.14966
C          C       0.74656   0.79159   0.90218   0.08155
C          C       0.08187   0.31820   0.77075   0.01642
C          C       0.12245   0.36536   0.73847   0.58527
C          C       0.08325   0.29623   0.87217  -0.14755
C          C       0.00410   0.25272   0.73937   0.07536
C          C       0.04142   0.29541   0.70282  -0.14986
C          C       0.04498   0.25307   0.90152   0.08116
C          C       0.23677   0.91842   0.77192   0.01760
C          C       0.24343   0.87785   0.74000   0.58591
C          C       0.21327   0.91697   0.87318  -0.15017
C          C       0.24889   0.99603   0.74036   0.07522
C          C       0.25432   0.95877   0.70382  -0.15019
C          C       0.20835   0.95521   0.90257   0.08222
C          C       0.88695   0.77404   0.69465   0.61074
C          C       0.98876   0.84954   0.08537   0.59101
C          C       0.88711   0.77421   0.56547  -0.00424
C          C       0.03739   0.91972   0.21815  -0.11852
C          C       0.85170   0.77354   0.38427   0.08789
C          C       0.02965   0.89513   0.11607  -0.13432
C          C       0.85064   0.77415   0.50325  -0.15213
C          C       0.15031   0.01109   0.08499   0.59352
C          C       0.08029   0.96255   0.21797  -0.11722
C          C       0.10476   0.97015   0.11574  -0.13509
C          C       0.92367   0.77423   0.50363  -0.15288
C          C       0.92221   0.77359   0.38458   0.09035
C          C       0.22594   0.11319   0.69487   0.60858
C          C       0.15024   0.13925   0.08566   0.59010
C          C       0.22580   0.11309   0.56567  -0.00324
C          C       0.08007   0.11757   0.21889  -0.11403
C          C       0.22641   0.07819   0.38457   0.08882
C          C       0.10464   0.13441   0.11678  -0.13468
C          C       0.22584   0.07662   0.50357  -0.15310
C          C       0.98884   0.13926   0.08562   0.59037
C          C       0.03722   0.11758   0.21882  -0.11553
C          C       0.02959   0.13443   0.11665  -0.13505
C          C       0.22578   0.14955   0.50370  -0.15266
C          C       0.22637   0.14862   0.38466   0.08959
C          C       0.88711   0.11308   0.69476   0.60985
C          C       0.86067   0.01110   0.08494   0.59366
C          C       0.88719   0.11305   0.56557  -0.00340
C          C       0.88208   0.96251   0.21771  -0.11715
C          C       0.92224   0.14870   0.38464   0.08942
C          C       0.86520   0.97013   0.11557  -0.13510
C          C       0.92373   0.14957   0.50369  -0.15304
C          C       0.86058   0.84958   0.08494   0.59272
C          C       0.88205   0.91967   0.21776  -0.11553
C          C       0.86515   0.89511   0.11564  -0.13438
C          C       0.85067   0.07659   0.50336  -0.15248
C          C       0.85170   0.07823   0.38436   0.08835
S          S       0.74096   0.25842   0.35305   0.17836
S          S       0.74149   0.48279   0.35409   0.17848
S          S       0.51716   0.25848   0.35392   0.17892
S          S       0.40818   0.59158   0.68839   0.17841
S          S       0.40836   0.81667   0.68858   0.17802
S          S       0.18318   0.59151   0.68805   0.17709
S          S       0.07486   0.92486   0.01948   0.17874
S          S       0.07486   0.14982   0.02033   0.17869
S          S       0.84971   0.92486   0.01923   0.17820
N          N       0.55335   0.10629   0.66136  -0.22051
N          N       0.67221   0.10756   0.17109  -0.25177
N          N       0.55899   0.89786   0.50519  -0.25379
N          N       0.89363   0.44706   0.66132  -0.22147
N          N       0.89232   0.56486   0.17140  -0.25082
N          N       0.10196   0.66117   0.50572  -0.25555
N          N       0.55445   0.44555   0.66229  -0.22262
N          N       0.43558   0.32766   0.17244  -0.25315
N          N       0.33901   0.44093   0.50473  -0.25430
N          N       0.89240   0.32783   0.17323  -0.25408
N          N       0.10206   0.44080   0.50462  -0.25219
N          N       0.43525   0.10735   0.17258  -0.25489
N          N       0.33880   0.89770   0.50411  -0.25154
N          N       0.67219   0.56441   0.17188  -0.25309
N          N       0.55889   0.66101   0.50475  -0.25403
N          N       0.22102   0.44181   0.99414  -0.22220
N          N       0.22578   0.23147   0.83715  -0.25266
N          N       0.55811   0.77895   0.99408  -0.22096
N          N       0.76838   0.99466   0.83823  -0.25427
N          N       0.21983   0.78063   0.99330  -0.22052
N          N       0.00527   0.77384   0.83709  -0.25207
N          N       0.76821   0.77365   0.83820  -0.25375
N          N       0.00548   0.23144   0.83718  -0.25245
N          N       0.22626   0.99471   0.83827  -0.25477
N          N       0.88676   0.77308   0.32528  -0.21794
N          N       0.22686   0.11365   0.32544  -0.21797
N          N       0.88676   0.11374   0.32535  -0.21757
O          O       0.55808   0.11640   0.30815  -0.92663
O          O       0.81732   0.09545   0.15352  -0.57070
O          O       0.79018   0.07846   0.96993  -0.56601
O          O       0.65473   0.16842   0.31665  -0.58951
O          O       0.58833   0.10722   0.07896  -0.56543
O          O       0.62428   0.16171   0.49659  -0.56037
O          O       0.83042   0.34548   0.31476  -0.58771
O          O       0.83870   0.37433   0.49698  -0.56352
O          O       0.51873   0.10727   0.07849  -0.56392
O          O       0.56974   0.05455   0.48633  -0.56849
O          O       0.59022   0.04567   0.30526  -0.56887
O          O       0.54909   0.77445   0.63895  -0.93143
O          O       0.48427   0.05448   0.48580  -0.57025
O          O       0.62173   0.87657   0.63469  -0.56402
O          O       0.49814   0.82017   0.65089  -0.59122
O          O       0.56050   0.81513   0.41053  -0.56367
O          O       0.53585   0.16115   0.49693  -0.56241
O          O       0.88340   0.44183   0.30813  -0.92668
O          O       0.90297   0.72129   0.15376  -0.56804
O          O       0.92241   0.71253   0.97142  -0.56910
O          O       0.83129   0.48649   0.31641  -0.58901
O          O       0.89273   0.48120   0.07904  -0.56523
O          O       0.83810   0.46236   0.49582  -0.56052
O          O       0.65493   0.48537   0.31575  -0.58900
O          O       0.62544   0.46432   0.49737  -0.56386
O          O       0.89291   0.41169   0.07852  -0.56458
O          O       0.94536   0.51514   0.48635  -0.56830
O          O       0.95404   0.54468   0.30560  -0.56917
O          O       0.22506   0.77455   0.63986  -0.92671
O          O       0.94551   0.42994   0.48576  -0.56989
O          O       0.12384   0.74605   0.63380  -0.56450
O          O       0.17976   0.67809   0.65065  -0.58966
O          O       0.18549   0.74455   0.41043  -0.56554
O          O       0.55868   0.44141   0.30753  -0.93218
O          O       0.27870   0.18179   0.15346  -0.56931
O          O       0.28758   0.21064   0.97179  -0.56953
O          O       0.51495   0.34521   0.31541  -0.58955
O          O       0.51883   0.41173   0.07882  -0.56362
O          O       0.53569   0.37449   0.49732  -0.56385
O          O       0.51484   0.16936   0.31508  -0.58765
O          O       0.58784   0.48196   0.07868  -0.56258
O          O       0.48466   0.42981   0.48584  -0.56852
O          O       0.45672   0.41099   0.30343  -0.56460
O          O       0.22550   0.45059   0.63900  -0.93163
O          O       0.57011   0.51535   0.48588  -0.56952
O          O       0.25476   0.37808   0.63406  -0.56292
O          O       0.32207   0.50171   0.65091  -0.59208
O          O       0.25465   0.43929   0.41050  -0.56351
O          O       0.90299   0.18187   0.15367  -0.57010
O          O       0.92266   0.21043   0.97172  -0.56929
O          O       0.95529   0.41236   0.30240  -0.56464
O          O       0.12319   0.37861   0.63512  -0.56400
O          O       0.17995   0.50189   0.65049  -0.59088
O          O       0.18569   0.44058   0.41075  -0.56361
O          O       0.27818   0.09554   0.15358  -0.57032
O          O       0.28841   0.07865   0.96996  -0.56639
O          O       0.45696   0.04456   0.30237  -0.56434
O          O       0.25659   0.87742   0.63693  -0.56860
O          O       0.32224   0.82030   0.65078  -0.59121
O          O       0.25496   0.81436   0.41095  -0.56502
O          O       0.81722   0.72181   0.15355  -0.57056
O          O       0.79002   0.71147   0.97002  -0.56665
O          O       0.58903   0.54343   0.30365  -0.56433
O          O       0.62140   0.74480   0.63462  -0.56368
O          O       0.49768   0.67760   0.65034  -0.59096
O          O       0.55952   0.74505   0.41063  -0.56438
O          O       0.29124   0.49488   0.83018  -0.56007
O          O       0.50545   0.70823   0.83017  -0.56156
O          O       0.23836   0.38887   0.81739  -0.57255
O          O       0.21640   0.10837   0.97165  -0.92738
O          O       0.15154   0.38810   0.81719  -0.56974
O          O       0.16453   0.15377   0.98243  -0.59086
O          O       0.22606   0.14805   0.74289  -0.56485
O          O       0.20282   0.49448   0.83045  -0.56142
O          O       0.50512   0.79633   0.83006  -0.56149
O          O       0.29100   0.79602   0.82936  -0.55870
O          O       0.61188   0.84856   0.81718  -0.57106
O          O       0.89177   0.10824   0.97164  -0.92792
O          O       0.61178   0.76301   0.81722  -0.56934
O          O       0.84656   0.01146   0.98175  -0.58991
O          O       0.85220   0.07827   0.74257  -0.56634
O          O       0.20401   0.70880   0.82976  -0.56081
O          O       0.15098   0.76301   0.81737  -0.57066
O          O       0.89141   0.78364   0.97168  -0.92783
O          O       0.23642   0.84854   0.81822  -0.57073
O          O       0.98870   0.83511   0.98216  -0.59139
O          O       0.92168   0.77395   0.74275  -0.56614
O          O       0.84636   0.83507   0.98182  -0.58923
O          O       0.85202   0.77388   0.74251  -0.56597
O          O       0.98895   0.15373   0.98242  -0.59144
O          O       0.92186   0.14794   0.74288  -0.56542
O          O       0.16476   0.01146   0.98176  -0.58963
O          O       0.22607   0.07842   0.74269  -0.56512
O          O       0.95765   0.82829   0.16092  -0.55774
O          O       0.17136   0.04207   0.16109  -0.56084
O          O       0.87069   0.82868   0.16093  -0.55988
O          O       0.17161   0.12939   0.16083  -0.55793
O          O       0.95766   0.12942   0.16098  -0.55801
O          O       0.87068   0.04209   0.16103  -0.56012

