data_crystal

_cell_length_a 11.05000
_cell_length_b 11.05000
_cell_length_c 27.77200
_cell_angle_alpha 90.00000
_cell_angle_beta  90.00000
_cell_angle_gamma 120.00000

_symmetry_space_group_name_	'P 1'
_symmetry_space_group_name_H-M	'P 1'

loop_
_symmetry_equiv_pos_as_xyz
  x,y,z

loop_
_atom_site_label
_atom_site_type_symbol
_atom_site_fract_x
_atom_site_fract_y
_atom_site_fract_z
_atom_site_charge
Co	Co	0.07699 0.83077 0.97075 1.11500
Co	Co	0.75378 0.92301 0.63742 1.11500
Co	Co	0.16923 0.24622 0.30408 1.11500
Co	Co	0.24622 0.16923 0.02925 1.11500
Co	Co	0.83077 0.07699 0.36258 1.11500
Co	Co	0.92301 0.75378 0.69592 1.11600
H 	H 	0.74640 0.53960 0.77690 0.01600
H 	H 	0.66350 0.15730 0.73980 0.03900
H 	H 	0.94320 0.50080 0.66740 0.01700
H 	H 	0.69310 0.44710 0.85070 0.08400
H 	H 	0.54570 0.35240 0.91640 0.02700
H 	H 	0.29810 0.00280 0.83970 0.00800
H 	H 	0.44850 0.09640 0.77480 0.10000
H 	H 	0.79320 0.25360 0.44357 0.01500
H 	H 	0.49380 0.33650 0.40647 0.03900
H 	H 	0.55760 0.05680 0.33407 0.01700
H 	H 	0.75400 0.30690 0.51737 0.08400
H 	H 	0.80670 0.45430 0.58307 0.02700
H 	H 	0.70470 0.70190 0.50637 0.00700
H 	H 	0.64790 0.55150 0.44147 0.09900
H 	H 	0.46040 0.20680 0.11023 0.01500
H 	H 	0.84270 0.50620 0.07313 0.03900
H 	H 	0.49920 0.44240 0.00073 0.01700
H 	H 	0.55290 0.24600 0.18403 0.08300
H 	H 	0.64760 0.19330 0.24973 0.02700
H 	H 	0.99720 0.29530 0.17303 0.00700
H 	H 	0.90360 0.35210 0.10813 0.10000
H 	H 	0.20680 0.46040 0.22310 0.01500
H 	H 	0.50620 0.84270 0.26020 0.04000
H 	H 	0.44240 0.49920 0.33260 0.01700
H 	H 	0.24600 0.55290 0.14930 0.08400
H 	H 	0.19330 0.64760 0.08360 0.02700
H 	H 	0.29530 0.99720 0.16030 0.00800
H 	H 	0.35210 0.90360 0.22520 0.10000
H 	H 	0.53960 0.74640 0.55643 0.01600
H 	H 	0.15730 0.66350 0.59353 0.03900
H 	H 	0.50080 0.94320 0.66593 0.01700
H 	H 	0.44710 0.69310 0.48263 0.08400
H 	H 	0.35240 0.54570 0.41693 0.02700
H 	H 	0.00280 0.29810 0.49363 0.00700
H 	H 	0.09640 0.44850 0.55853 0.10000
H 	H 	0.25360 0.79320 0.88977 0.01500
H 	H 	0.33650 0.49380 0.92687 0.03900
H 	H 	0.05680 0.55760 0.99927 0.01700
H 	H 	0.30690 0.75400 0.81597 0.08300
H 	H 	0.45430 0.80670 0.75027 0.02700
H 	H 	0.70190 0.70470 0.82697 0.00700
H 	H 	0.55150 0.64790 0.89187 0.09900
C 	C 	0.76000 0.48070 0.75644 0.03700
C 	C 	0.68580 0.33700 0.76539 -0.06000
C 	C 	0.70940 0.25320 0.73474 0.02100
C 	C 	0.80260 0.31160 0.69576 -0.11800
C 	C 	0.87550 0.45890 0.69122 0.07800
C 	C 	0.83200 0.22430 0.66178 0.36300
C 	C 	0.58710 0.28180 0.80670 0.10300
C 	C 	0.61560 0.35790 0.84878 -0.15100
C 	C 	0.52710 0.29970 0.88837 0.07200
C 	C 	0.41020 0.16330 0.88715 -0.15200
C 	C 	0.37870 0.08970 0.84250 0.07800
C 	C 	0.46750 0.14680 0.80331 -0.15900
C 	C 	0.31720 0.09730 0.92952 0.41700
C 	C 	0.72070 0.24000 0.42311 0.03700
C 	C 	0.65120 0.31420 0.43206 -0.06000
C 	C 	0.54380 0.29060 0.40141 0.02200
C 	C 	0.50900 0.19740 0.36243 -0.11900
C 	C 	0.58340 0.12450 0.35789 0.07800
C 	C 	0.39230 0.16800 0.32845 0.36300
C 	C 	0.69470 0.41290 0.47337 0.10300
C 	C 	0.74230 0.38440 0.51545 -0.15100
C 	C 	0.77260 0.47290 0.55504 0.07200
C 	C 	0.75310 0.58980 0.55382 -0.15200
C 	C 	0.71100 0.62130 0.50917 0.07700
C 	C 	0.67930 0.53250 0.46998 -0.15900
C 	C 	0.78010 0.68280 0.59619 0.41600
C 	C 	0.51930 0.27930 0.08977 0.03700
C 	C 	0.66300 0.34880 0.09872 -0.06000
C 	C 	0.74680 0.45620 0.06807 0.02100
C 	C 	0.68840 0.49100 0.02909 -0.11800
C 	C 	0.54110 0.41660 0.02455 0.07800
C 	C 	0.77570 0.60770 0.99511 0.36300
C 	C 	0.71820 0.30530 0.14003 0.10300
C 	C 	0.64210 0.25770 0.18211 -0.15100
C 	C 	0.70030 0.22740 0.22170 0.07200
C 	C 	0.83670 0.24690 0.22048 -0.15200
C 	C 	0.91030 0.28900 0.17583 0.07700
C 	C 	0.85320 0.32070 0.13664 -0.15900
C 	C 	0.90270 0.21990 0.26285 0.41600
C 	C 	0.27930 0.51930 0.24356 0.03700
C 	C 	0.34880 0.66300 0.23461 -0.06000
C 	C 	0.45620 0.74680 0.26526 0.02100
C 	C 	0.49100 0.68840 0.30424 -0.11800
C 	C 	0.41660 0.54110 0.30878 0.07800
C 	C 	0.60770 0.77570 0.33822 0.36300
C 	C 	0.30530 0.71820 0.19330 0.10300
C 	C 	0.25770 0.64210 0.15122 -0.15100
C 	C 	0.22740 0.70030 0.11163 0.07200
C 	C 	0.24690 0.83670 0.11285 -0.15200
C 	C 	0.28900 0.91030 0.15750 0.07800
C 	C 	0.32070 0.85320 0.19669 -0.15900
C 	C 	0.21990 0.90270 0.07048 0.41700
C 	C 	0.48070 0.76000 0.57689 0.03700
C 	C 	0.33700 0.68580 0.56794 -0.06000
C 	C 	0.25320 0.70940 0.59859 0.02100
C 	C 	0.31160 0.80260 0.63757 -0.11800
C 	C 	0.45890 0.87550 0.64211 0.07800
C 	C 	0.22430 0.83200 0.67155 0.36300
C 	C 	0.28180 0.58710 0.52663 0.10300
C 	C 	0.35790 0.61560 0.48455 -0.15100
C 	C 	0.29970 0.52710 0.44496 0.07200
C 	C 	0.16330 0.41020 0.44618 -0.15200
C 	C 	0.08970 0.37870 0.49083 0.07700
C 	C 	0.14680 0.46750 0.53002 -0.15900
C 	C 	0.09730 0.31720 0.40381 0.41600
C 	C 	0.24000 0.72070 0.91023 0.03700
C 	C 	0.31420 0.65120 0.90128 -0.06000
C 	C 	0.29060 0.54380 0.93193 0.02100
C 	C 	0.19740 0.50900 0.97091 -0.11800
C 	C 	0.12450 0.58340 0.97545 0.07800
C 	C 	0.16800 0.39230 0.00489 0.36200
C 	C 	0.41290 0.69470 0.85997 0.10200
C 	C 	0.38440 0.74230 0.81789 -0.15100
C 	C 	0.47290 0.77260 0.77830 0.07200
C 	C 	0.58980 0.75310 0.77952 -0.15200
C 	C 	0.62130 0.71100 0.82417 0.07700
C 	C 	0.53250 0.67930 0.86336 -0.15900
C 	C 	0.68280 0.78010 0.73715 0.41600
N 	N 	0.84970 0.53750 0.71978 -0.21400
N 	N 	0.68780 0.15030 0.38645 -0.21400
N 	N 	0.46250 0.31220 0.05311 -0.21400
N 	N 	0.31220 0.46250 0.28022 -0.21400
N 	N 	0.53750 0.84970 0.61355 -0.21400
N 	N 	0.15030 0.68780 0.94689 -0.21400
O 	O 	0.22070 0.97460 0.92481 -0.49800
O 	O 	0.34920 0.16790 0.96738 -0.45900
O 	O 	0.77390 0.09640 0.67173 -0.44700
O 	O 	0.90720 0.28180 0.62683 -0.31400
O 	O 	0.75390 0.77930 0.59148 -0.49700
O 	O 	0.81870 0.65080 0.63405 -0.45900
O 	O 	0.32250 0.22610 0.33840 -0.44800
O 	O 	0.37460 0.09280 0.29350 -0.31400
O 	O 	0.02540 0.24610 0.25814 -0.49800
O 	O 	0.83210 0.18130 0.30071 -0.45900
O 	O 	0.90360 0.67750 0.00506 -0.44700
O 	O 	0.71820 0.62540 0.96016 -0.31400
O 	O 	0.24610 0.02540 0.07519 -0.49900
O 	O 	0.18130 0.83210 0.03262 -0.45900
O 	O 	0.67750 0.90360 0.32827 -0.44600
O 	O 	0.62540 0.71820 0.37317 -0.31300
O 	O 	0.97460 0.22070 0.40852 -0.49800
O 	O 	0.16790 0.34920 0.36595 -0.45900
O 	O 	0.09640 0.77390 0.66160 -0.44700
O 	O 	0.28180 0.90720 0.70650 -0.31400
O 	O 	0.77930 0.75390 0.74186 -0.49700
O 	O 	0.65080 0.81870 0.69929 -0.45900
O 	O 	0.22610 0.32250 0.99494 -0.44700
O 	O 	0.09280 0.37460 0.03984 -0.31400
