data_crystal

_cell_length_a 8.14050
_cell_length_b 10.52450
_cell_length_c 11.42950
_cell_angle_alpha 62.58640
_cell_angle_beta  84.39390
_cell_angle_gamma 77.75000

_symmetry_space_group_name_	'P 1'
_symmetry_space_group_name_H-M	'P 1'

loop_
_symmetry_equiv_pos_as_xyz
  x,y,z

loop_
_atom_site_label
_atom_site_type_symbol
_atom_site_fract_x
_atom_site_fract_y
_atom_site_fract_z
_atom_site_charge
Co	Co	0.62792 0.20032 0.50748 1.10700
Co	Co	0.12792 0.70780 0.49252 1.08800
H 	H 	0.54170 0.88980 0.63300 -0.03300
H 	H 	0.72660 0.08410 0.79860 -0.01200
H 	H 	0.55910 0.30430 0.21420 -0.01200
H 	H 	0.53840 0.68830 0.82940 0.07300
H 	H 	0.67810 0.72580 0.18540 0.06800
H 	H 	0.56320 0.49650 0.01000 0.07300
H 	H 	0.67480 0.52120 0.38480 -0.02300
H 	H 	0.72220 0.88710 0.00220 0.08200
H 	H 	0.85600 0.90400 0.54000 -0.17800
H 	H 	0.04170 0.52280 0.36700 -0.04500
H 	H 	0.22660 0.88270 0.20140 -0.02600
H 	H 	0.05910 0.51850 0.78580 -0.02300
H 	H 	0.03840 0.51770 0.17060 0.05700
H 	H 	0.17810 0.91120 0.81460 0.05500
H 	H 	0.06320 0.50650 0.99000 0.06200
H 	H 	0.17480 0.90600 0.61520 -0.04300
H 	H 	0.22220 0.88930 0.99780 0.06600
H 	H 	0.35600 0.44400 0.46000 -0.20700
C 	C 	0.57980 0.88950 0.70920 0.06700
C 	C 	0.68630 0.00290 0.80480 0.10300
C 	C 	0.62760 0.76330 0.94140 0.06800
C 	C 	0.62100 0.63570 0.07220 0.05000
C 	C 	0.58520 0.39090 0.20820 0.08400
C 	C 	0.57630 0.76930 0.82620 -0.13200
C 	C 	0.65420 0.63990 0.18820 -0.12000
C 	C 	0.58610 0.50540 0.08560 -0.12300
C 	C 	0.65150 0.51680 0.30700 0.07300
C 	C 	0.68440 0.88500 0.92720 -0.14400
C 	C 	0.86510 0.96770 0.45520 0.48600
C 	C 	0.07980 0.59870 0.29080 0.06600
C 	C 	0.18630 0.80770 0.19520 0.06600
C 	C 	0.12760 0.70470 0.05860 0.04500
C 	C 	0.12100 0.70790 0.92780 0.04300
C 	C 	0.08520 0.59910 0.79180 0.07300
C 	C 	0.07630 0.59550 0.17380 -0.13900
C 	C 	0.15420 0.82810 0.81180 -0.13500
C 	C 	0.08610 0.59100 0.91440 -0.13500
C 	C 	0.15150 0.82380 0.69300 0.05900
C 	C 	0.18440 0.81220 0.07280 -0.13500
C 	C 	0.36510 0.42290 0.54480 0.52500
N 	N 	0.63430 0.00930 0.69380 -0.24300
N 	N 	0.61790 0.39120 0.31980 -0.24300
N 	N 	0.13430 0.70310 0.30620 -0.25700
N 	N 	0.11790 0.71100 0.68020 -0.25400
O 	O 	0.77740 0.09360 0.40520 -0.45900
O 	O 	0.97890 0.91883 0.39714 -0.44100
O 	O 	0.27740 0.49880 0.59480 -0.49400
O 	O 	0.47890 0.31597 0.60286 -0.48300
