data_crystal

_audit_creation_method 'AiiDA-DDEC plugin'

_cell_length_a        18.78185
_cell_length_b        18.63499
_cell_length_c        18.82024

_cell_angle_alpha     60.25880
_cell_angle_beta     59.92763
_cell_angle_gamma     60.15527

_symmetry_space_group_name_Hall 'P 1'
_symmetry_space_group_name_H-M  'P 1'

loop_
_symmetry_equiv_pos_as_xyz
 'x,y,z'

loop_
_atom_site_label
_atom_site_type_symbol
_atom_site_fract_x
_atom_site_fract_y
_atom_site_fract_z
_atom_site_charge
Cu         Cu      0.06627   0.49781   0.93278   0.92001
Cu         Cu      0.49913   0.06638   0.50314   0.92157
Cu         Cu      0.93580   0.49748   0.06288   0.92179
Cu         Cu      0.49962   0.93484   0.50301   0.92156
Cu         Cu      0.06575   0.93405   0.49877   0.92004
Cu         Cu      0.49813   0.50013   0.93598   0.92098
Cu         Cu      0.93618   0.06513   0.49979   0.91909
Cu         Cu      0.49792   0.50284   0.06496   0.92194
Cu         Cu      0.06402   0.50219   0.49746   0.92242
Cu         Cu      0.50196   0.93333   0.06727   0.92057
Cu         Cu      0.93419   0.50043   0.49813   0.92114
Cu         Cu      0.50339   0.06426   0.93791   0.92065
H          H       0.23540   0.23143   0.00249   0.14278
H          H       0.23317   0.23129   0.53462   0.14274
H          H       0.00508   0.52096   0.23511   0.14249
H          H       0.52301   0.00522   0.24100   0.14314
H          H       0.23390   0.00018   0.53353   0.14208
H          H       0.23426   0.52355   0.00565   0.14254
H          H       0.00429   0.23315   0.23028   0.14291
H          H       0.52492   0.23706   0.23789   0.14225
H          H       0.23355   0.52280   0.23519   0.14337
H          H       0.23607   0.00550   0.23421   0.14213
H          H       0.00648   0.23155   0.52906   0.14214
H          H       0.52906   0.23160   0.00953   0.14192
H          H       0.77027   0.76467   0.99638   0.14209
H          H       0.76721   0.77036   0.46313   0.14258
H          H       0.47719   0.99575   0.76714   0.14198
H          H       0.99302   0.47760   0.76140   0.14210
H          H       0.99683   0.77051   0.46238   0.14219
H          H       0.46705   0.76842   0.99776   0.14184
H          H       0.76721   0.99398   0.76748   0.14119
H          H       0.76076   0.48475   0.76009   0.14239
H          H       0.46723   0.76904   0.76840   0.14242
H          H       0.99666   0.76378   0.76437   0.14140
H          H       0.76632  -0.00075   0.46871   0.14264
H          H       0.76400   0.47692   0.99109   0.14130
C          C       0.75312   0.47963   0.88093  -0.03756
C          C       0.46549   0.75962   0.88840  -0.03908
C          C       0.88731   0.88434   0.75617  -0.03721
C          C       0.88691   0.89009   0.46418  -0.03790
C          C       0.75942   0.88459   0.88713  -0.03765
C          C       0.47059   0.88741   0.88781  -0.03857
C          C       0.88730   0.76125   0.46113  -0.03760
C          C       0.88183   0.48035   0.75156  -0.03837
C          C       0.75772   0.89033   0.46418  -0.03782
C          C       0.47106   0.88762   0.75859  -0.03845
C          C       0.88378   0.47631   0.88139  -0.03756
C          C       0.88881   0.75535   0.88540  -0.03769
C          C       0.52858   0.24373   0.11805  -0.03878
C          C       0.24311   0.52416   0.11538  -0.03662
C          C       0.11478   0.11400   0.24213  -0.03551
C          C       0.11500   0.11073   0.53251  -0.03639
C          C       0.11437   0.24104   0.11108  -0.03642
C          C       0.11444   0.52349   0.11494  -0.03678
C          C       0.24258   0.11044   0.53566  -0.03606
C          C       0.52469   0.11635   0.24846  -0.03684
C          C       0.11423   0.24105   0.53339  -0.03546
C          C       0.11417   0.52297   0.24420  -0.03804
C          C       0.52761   0.11302   0.11992  -0.03754
C          C       0.24474   0.11330   0.11346  -0.03749
C          C       0.07071   0.07094   0.33611   0.58430
C          C       0.07156   0.06667   0.52567   0.58512
C          C       0.33616   0.52014   0.07129   0.58445
C          C       0.52486   0.33721   0.07222   0.58562
C          C       0.06983   0.33565   0.52717   0.58477
C          C       0.06986   0.51859   0.33709   0.58529
C          C       0.33891   0.06948   0.07046   0.58377
C          C       0.52394   0.06778   0.07543   0.58460
C          C       0.07061   0.51863   0.07022   0.58583
C          C       0.06979   0.33391   0.06598   0.58415
C          C       0.33567   0.06613   0.53133   0.58461
C          C       0.51870   0.07300   0.34167   0.58395
C          C       0.93076   0.92828   0.66224   0.58294
C          C       0.93078   0.93300   0.47190   0.58572
C          C       0.46962   0.66605   0.93255   0.58494
C          C       0.65998   0.48347   0.92610   0.58422
C          C       0.66359   0.93364   0.47236   0.58464
C          C       0.47870   0.93084   0.66485   0.58624
C          C       0.93354   0.66173   0.92894   0.58439
C          C       0.92939   0.47813   0.92639   0.58479
C          C       0.47805   0.93031   0.93187   0.58409
C          C       0.66607   0.92899   0.93224   0.58382
C          C       0.93100   0.66694   0.46712   0.58411
C          C       0.92612   0.48486   0.65856   0.58559
C          C       0.79730   0.47721   0.92430  -0.07355
C          C       0.46710   0.80243   0.80219  -0.07381
C          C       0.93084   0.79820   0.79881  -0.07340
C          C       0.80064   0.93328   0.46515  -0.07531
C          C       0.80161   0.92751   0.80053  -0.07313
C          C       0.46689   0.80221   0.93132  -0.07260
C          C       0.93034   0.80428   0.46177  -0.07412
C          C       0.79530   0.48148   0.79436  -0.07439
C          C       0.80103   0.80438   0.46204  -0.07457
C          C       0.47263   0.93023   0.80140  -0.07414
C          C       0.92613   0.47770   0.79498  -0.07377
C          C       0.80316   0.79851   0.92963  -0.07509
C          C       0.52905   0.19906   0.07599  -0.07286
C          C       0.20002   0.52374   0.20138  -0.07602
C          C       0.20154   0.07108   0.19980  -0.07546
C          C       0.07202   0.19749   0.53221  -0.07565
C          C       0.07116   0.19897   0.19751  -0.07718
C          C       0.20032   0.52427   0.07209  -0.07624
C          C       0.20026   0.06709   0.53443  -0.07629
C          C       0.52649   0.20231   0.20448  -0.07426
C          C       0.19960   0.19733   0.53523  -0.07721
C          C       0.07128   0.52289   0.20115  -0.07421
C          C       0.52536   0.07157   0.20628  -0.07632
C          C       0.20121   0.19827   0.06895  -0.07520
O          O       0.11275   0.99167   0.37163  -0.53914
O          O       0.99283   0.10950   0.52642  -0.53873
O          O       0.37167   0.52013   0.11425  -0.53789
O          O       0.52327   0.37203   0.99462  -0.53929
O          O       0.11233   0.37324   0.52558  -0.53614
O          O       0.99155   0.51752   0.37317  -0.53578
O          O       0.37616   0.11331   0.99329  -0.53629
O          O       0.52164   0.98954   0.11843  -0.53520
O          O       0.11335   0.51949   0.99144  -0.53929
O          O       0.99069   0.36968   0.10818  -0.53741
O          O       0.37236   0.98764   0.52938  -0.53591
O          O       0.51698   0.11699   0.37777  -0.53622
O          O       0.00943   0.88563   0.62584  -0.53704
O          O       0.88874   0.01196   0.47248  -0.53615
O          O       0.47177   0.62888   0.88941  -0.53762
O          O       0.62403   0.48600   0.00370  -0.53926
O          O       0.62711   0.88930   0.47512  -0.53780
O          O       0.48095   0.00910   0.62859  -0.53681
O          O       0.89129   0.62564   0.00760  -0.54024
O          O       0.00835   0.47721   0.88389  -0.53642
O          O       0.47995   0.88604   0.00944  -0.53722
O          O       0.63016   0.00766   0.88953  -0.53633
O          O       0.00901   0.63088   0.46852  -0.53883
O          O       0.88329   0.48466   0.62299  -0.53766
O          O       0.88526   0.00456   0.62529  -0.53675
O          O       0.00635   0.88640   0.47937  -0.53817
O          O       0.62327   0.48514   0.88320  -0.53657
O          O       0.47335   0.62985   0.00948  -0.53781
O          O       0.88612   0.62905   0.47313  -0.53628
O          O       0.00307   0.48963   0.62158  -0.53866
O          O       0.62882   0.88445   0.00900  -0.53963
O          O       0.48372   0.00725   0.88781  -0.53609
O          O       0.88495   0.48241   0.00345  -0.53895
O          O       0.00992   0.62445   0.88347  -0.53500
O          O       0.62642   0.01057   0.47828  -0.53794
O          O       0.48395   0.88543   0.62794  -0.54016
O          O       0.99534   0.11718   0.37405  -0.53565
O          O       0.11697   0.99050   0.51780  -0.53592
O          O       0.52146   0.37557   0.11507  -0.53717
O          O       0.37328   0.51535   0.99447  -0.53596
O          O       0.37190   0.11123   0.52767  -0.54041
O          O       0.51457   0.99544   0.37828  -0.53887
O          O       0.11496   0.37104   0.98957  -0.53734
O          O       0.99424   0.51228   0.11510  -0.53710
O          O       0.52178   0.11191   0.99796  -0.53935
O          O       0.37524   0.99216   0.11494  -0.53753
O          O       0.99332   0.37213   0.52193  -0.54207
O          O       0.11433   0.51483   0.37348  -0.53810

