data_crystal

_cell_length_a 7.17220
_cell_length_b 12.81090
_cell_length_c 17.31620
_cell_angle_alpha 90.00000
_cell_angle_beta  90.93300
_cell_angle_gamma 90.00000

_symmetry_space_group_name_	'P 1'
_symmetry_space_group_name_H-M	'P 1'

loop_
_symmetry_equiv_pos_as_xyz
  x,y,z

loop_
_atom_site_label
_atom_site_type_symbol
_atom_site_fract_x
_atom_site_fract_y
_atom_site_fract_z
_atom_site_charge
O 	O 	0.10440 0.38175 0.06817 -0.59100
O 	O 	0.40913 0.40769 0.08749 -0.53600
O 	O 	0.08254 0.07144 0.39912 -0.58300
O 	O 	0.38757 0.09719 0.41828 -0.53300
O 	O 	0.74973 0.40901 0.00547 -1.36600
H 	H 	0.75860 0.35230 0.98030 0.60100
H 	H 	0.74890 0.39100 0.05150 0.48400
C 	C 	0.25710 0.36354 0.10175 0.41500
C 	C 	0.23890 0.10445 0.37877 0.40300
C 	C 	0.25560 0.28494 0.16699 -0.10400
C 	C 	0.10220 0.28266 0.21314 -0.12600
H 	H 	0.99910 0.32340 0.20020 0.13500
C 	C 	0.09770 0.21981 0.27971 -0.12500
H 	H 	0.99040 0.21840 0.30910 0.13700
C 	C 	0.24850 0.16061 0.30203 -0.10200
C 	C 	0.40830 0.15625 0.25359 0.03000
C 	C 	0.40980 0.21744 0.18448 0.02600
C 	C 	0.56160 0.20563 0.13380 -0.08300
H 	H 	0.56210 0.24310 0.08780 0.01500
C 	C 	0.70680 0.14072 0.15099 -0.05500
H 	H 	0.80570 0.13500 0.11720 0.01700
C 	C 	0.70770 0.08256 0.21955 -0.03600
H 	H 	0.80800 0.03900 0.23140 0.01700
C 	C 	0.56280 0.08942 0.26884 -0.09500
H 	H 	0.56470 0.04940 0.31370 0.03700
O 	O 	0.89560 0.88175 0.43183 -0.40200
O 	O 	0.59087 0.90769 0.41251 -0.42100
O 	O 	0.91746 0.57144 0.10088 -0.46800
O 	O 	0.61243 0.59719 0.08172 -0.52500
O 	O 	0.25027 0.90901 0.49453 -1.01300
H 	H 	0.24140 0.85230 0.51970 0.37400
H 	H 	0.25110 0.89100 0.44850 0.39800
C 	C 	0.74290 0.86354 0.39825 0.43900
C 	C 	0.76110 0.60445 0.12123 0.44300
C 	C 	0.74440 0.78494 0.33301 -0.11500
C 	C 	0.89780 0.78266 0.28686 0.09600
H 	H 	0.00090 0.82340 0.29980 -0.02600
C 	C 	0.90230 0.71981 0.22029 0.13100
H 	H 	0.00960 0.71840 0.19090 -0.05900
C 	C 	0.75150 0.66061 0.19797 -0.15500
C 	C 	0.59170 0.65625 0.24641 0.07600
C 	C 	0.59020 0.71744 0.31552 0.04600
C 	C 	0.43840 0.70563 0.36620 -0.06300
H 	H 	0.43790 0.74310 0.41220 0.04900
C 	C 	0.29320 0.64072 0.34901 -0.04800
H 	H 	0.19430 0.63500 0.38280 0.02600
C 	C 	0.29230 0.58256 0.28045 -0.00400
H 	H 	0.19200 0.53900 0.26860 0.01900
C 	C 	0.43720 0.58942 0.23116 -0.10500
H 	H 	0.43530 0.54940 0.18630 0.08100
O 	O 	0.89560 0.61825 0.93183 -0.39900
O 	O 	0.59087 0.59231 0.91251 -0.45800
O 	O 	0.91746 0.92856 0.60088 -0.37600
O 	O 	0.61243 0.90281 0.58172 -0.44100
O 	O 	0.25027 0.59099 0.99453 -0.80200
H 	H 	0.24140 0.64770 0.01970 0.20200
H 	H 	0.25110 0.60900 0.94850 0.31700
C 	C 	0.74290 0.63646 0.89825 0.44500
C 	C 	0.76110 0.89555 0.62123 0.42800
C 	C 	0.74440 0.71506 0.83301 -0.12900
C 	C 	0.89780 0.71734 0.78686 0.10300
H 	H 	0.00090 0.67660 0.79980 -0.05100
C 	C 	0.90230 0.78019 0.72029 0.10400
H 	H 	0.00960 0.78160 0.69090 -0.05000
C 	C 	0.75150 0.83939 0.69797 -0.12600
C 	C 	0.59170 0.84375 0.74641 0.07600
C 	C 	0.59020 0.78256 0.81552 0.06400
C 	C 	0.43840 0.79437 0.86620 -0.06300
H 	H 	0.43790 0.75690 0.91220 0.08700
C 	C 	0.29320 0.85928 0.84901 -0.02300
H 	H 	0.19430 0.86500 0.88280 0.06800
C 	C 	0.29230 0.91744 0.78045 0.01000
H 	H 	0.19200 0.96100 0.76860 0.06700
C 	C 	0.43720 0.91058 0.73116 -0.08900
H 	H 	0.43530 0.95060 0.68630 0.12400
O 	O 	0.10440 0.11825 0.56817 -0.58100
O 	O 	0.40913 0.09231 0.58749 -0.57100
O 	O 	0.08254 0.42856 0.89912 -0.48800
O 	O 	0.38757 0.40281 0.91828 -0.44900
O 	O 	0.74973 0.09099 0.50547 -1.16000
H 	H 	0.75860 0.14770 0.48030 0.43600
H 	H 	0.74890 0.10900 0.55150 0.40400
C 	C 	0.25710 0.13646 0.60175 0.42200
C 	C 	0.23890 0.39555 0.87877 0.39100
C 	C 	0.25560 0.21506 0.66699 -0.12000
C 	C 	0.10220 0.21734 0.71314 -0.11000
H 	H 	0.99910 0.17660 0.70020 0.10200
C 	C 	0.09770 0.28019 0.77971 -0.13900
H 	H 	0.99040 0.28160 0.80910 0.13500
C 	C 	0.24850 0.33939 0.80203 -0.07700
C 	C 	0.40830 0.34375 0.75359 0.03100
C 	C 	0.40980 0.28256 0.68448 0.04300
C 	C 	0.56160 0.29437 0.63380 -0.08300
H 	H 	0.56210 0.25690 0.58780 0.05200
C 	C 	0.70680 0.35928 0.65099 -0.03100
H 	H 	0.80570 0.36500 0.61720 0.05600
C 	C 	0.70770 0.41744 0.71955 -0.02200
H 	H 	0.80800 0.46100 0.73140 0.06200
C 	C 	0.56280 0.41058 0.76884 -0.08000
H 	H 	0.56470 0.45060 0.81370 0.07900
Mg	Mg	0.50000 0.50000 -0.00000 1.47000
Mg	Mg	0.50000 0.00000 0.50000 1.46600
Mg	Mg	-0.00000 0.50000 -0.00000 1.46100
Mg	Mg	0.00000 0.00000 0.50000 1.45700
