data_crystal

_cell_length_a 11.15770
_cell_length_b 17.49450
_cell_length_c 13.04190
_cell_angle_alpha 90.00000
_cell_angle_beta  102.31600
_cell_angle_gamma 90.00000

_symmetry_space_group_name_	'P 1'
_symmetry_space_group_name_H-M	'P 1'

loop_
_symmetry_equiv_pos_as_xyz
  x,y,z

loop_
_atom_site_label
_atom_site_type_symbol
_atom_site_fract_x
_atom_site_fract_y
_atom_site_fract_z
_atom_site_charge
Zn	Zn	0.36802 0.94008 0.64536 1.22700
Ca	Ca	0.44625 0.13179 0.57441 1.48800
C 	C 	0.74500 0.90037 0.15230 -0.06500
C 	C 	0.78410 0.82497 0.15590 -0.00000
H 	H 	0.78880 0.79660 0.21690 0.04100
C 	C 	0.81620 0.79154 0.06910 -0.07500
C 	C 	0.80860 0.83360 0.97720 -0.11300
H 	H 	0.83120 0.81190 0.91900 0.06000
C 	C 	0.76690 0.90830 0.97410 0.17700
C 	C 	0.73630 0.94215 0.06070 -0.11300
H 	H 	0.71010 0.99270 0.05760 0.09300
C 	C 	0.70500 0.93558 0.24520 0.38000
C 	C 	0.85420 0.70850 0.07310 0.38400
C 	C 	0.81490 0.95295 0.81110 0.24700
C 	C 	0.75440 0.97197 0.71000 -0.19600
C 	C 	0.82370 0.98370 0.63380 0.00300
C 	C 	0.95080 0.97610 0.66000 -0.11500
H 	H 	0.99700 0.98460 0.60960 0.09100
C 	C 	0.00800 0.95600 0.76080 0.07000
H 	H 	0.09270 0.95000 0.77750 0.00600
C 	C 	0.94090 0.94470 0.83740 -0.23100
H 	H 	0.98010 0.93170 0.90540 0.10700
C 	C 	0.61800 0.98601 0.68750 0.45500
C 	C 	0.76210 0.00890 0.52520 0.29800
O 	O 	0.68130 0.00662 0.23860 -0.47300
O 	O 	0.69670 0.89351 0.32034 -0.51000
O 	O 	0.83540 0.67082 0.15081 -0.45700
O 	O 	0.89870 0.68169 0.00080 -0.52900
O 	O 	0.74090 0.95217 0.88340 -0.27300
O 	O 	0.81860 0.04745 0.47240 -0.36600
O 	O 	0.64990 0.99084 0.49132 -0.57300
O 	O 	0.58210 0.05302 0.68406 -0.52100
O 	O 	0.54950 0.92822 0.67510 -0.52000
Zn	Zn	0.13198 0.44008 0.85464 1.22800
Ca	Ca	0.05375 0.63179 0.92559 1.48800
C 	C 	0.75500 0.40037 0.34770 -0.06300
C 	C 	0.71590 0.32497 0.34410 -0.00200
H 	H 	0.71120 0.29660 0.28310 0.04100
C 	C 	0.68380 0.29154 0.43090 -0.07100
C 	C 	0.69140 0.33360 0.52280 -0.11700
H 	H 	0.66880 0.31190 0.58100 0.06100
C 	C 	0.73310 0.40830 0.52590 0.17800
C 	C 	0.76370 0.44215 0.43930 -0.11400
H 	H 	0.78990 0.49270 0.44240 0.09300
C 	C 	0.79500 0.43558 0.25480 0.37700
C 	C 	0.64580 0.20850 0.42690 0.38300
C 	C 	0.68510 0.45295 0.68890 0.25400
C 	C 	0.74560 0.47197 0.79000 -0.20000
C 	C 	0.67630 0.48370 0.86620 0.00800
C 	C 	0.54920 0.47610 0.84000 -0.13200
H 	H 	0.50300 0.48460 0.89040 0.09600
C 	C 	0.49200 0.45600 0.73920 0.09500
H 	H 	0.40730 0.45000 0.72250 -0.00100
C 	C 	0.55910 0.44470 0.66260 -0.24900
H 	H 	0.51990 0.43170 0.59460 0.11200
C 	C 	0.88200 0.48601 0.81250 0.45700
C 	C 	0.73790 0.50890 0.97480 0.30400
O 	O 	0.81870 0.50662 0.26140 -0.47100
O 	O 	0.80330 0.39351 0.17966 -0.51000
O 	O 	0.66460 0.17082 0.34919 -0.45700
O 	O 	0.60130 0.18169 0.49920 -0.52700
O 	O 	0.75910 0.45217 0.61660 -0.27500
O 	O 	0.68140 0.54745 0.02760 -0.36800
O 	O 	0.85010 0.49084 0.00868 -0.57800
O 	O 	0.91790 0.55302 0.81594 -0.52000
O 	O 	0.95050 0.42822 0.82490 -0.51800
Zn	Zn	0.63198 0.05992 0.35464 1.22800
Ca	Ca	0.55375 0.86821 0.42559 1.48900
C 	C 	0.25500 0.09963 0.84770 -0.06500
C 	C 	0.21590 0.17503 0.84410 -0.00000
H 	H 	0.21120 0.20340 0.78310 0.04100
C 	C 	0.18380 0.20846 0.93090 -0.07500
C 	C 	0.19140 0.16640 0.02280 -0.11300
H 	H 	0.16880 0.18810 0.08100 0.06000
C 	C 	0.23310 0.09170 0.02590 0.17700
C 	C 	0.26370 0.05785 0.93930 -0.11300
H 	H 	0.28990 0.00730 0.94240 0.09300
C 	C 	0.29500 0.06442 0.75480 0.38000
C 	C 	0.14580 0.29150 0.92690 0.38400
C 	C 	0.18510 0.04705 0.18890 0.24700
C 	C 	0.24560 0.02803 0.29000 -0.19600
C 	C 	0.17630 0.01630 0.36620 0.00300
C 	C 	0.04920 0.02390 0.34000 -0.11500
H 	H 	0.00300 0.01540 0.39040 0.09100
C 	C 	0.99200 0.04400 0.23920 0.07000
H 	H 	0.90730 0.05000 0.22250 0.00600
C 	C 	0.05910 0.05530 0.16260 -0.23100
H 	H 	0.01990 0.06830 0.09460 0.10700
C 	C 	0.38200 0.01399 0.31250 0.45500
C 	C 	0.23790 0.99110 0.47480 0.29800
O 	O 	0.31870 0.99338 0.76140 -0.47300
O 	O 	0.30330 0.10649 0.67966 -0.51000
O 	O 	0.16460 0.32918 0.84919 -0.45700
O 	O 	0.10130 0.31831 0.99920 -0.52900
O 	O 	0.25910 0.04783 0.11660 -0.27300
O 	O 	0.18140 0.95255 0.52760 -0.36600
O 	O 	0.35010 0.00916 0.50868 -0.57300
O 	O 	0.41790 0.94698 0.31594 -0.52100
O 	O 	0.45050 0.07178 0.32490 -0.52000
Zn	Zn	0.86802 0.55992 0.14536 1.22800
Ca	Ca	0.94625 0.36821 0.07441 1.48800
C 	C 	0.24500 0.59963 0.65230 -0.06300
C 	C 	0.28410 0.67503 0.65590 -0.00200
H 	H 	0.28880 0.70340 0.71690 0.04100
C 	C 	0.31620 0.70846 0.56910 -0.07100
C 	C 	0.30860 0.66640 0.47720 -0.11700
H 	H 	0.33120 0.68810 0.41900 0.06100
C 	C 	0.26690 0.59170 0.47410 0.17800
C 	C 	0.23630 0.55785 0.56070 -0.11400
H 	H 	0.21010 0.50730 0.55760 0.09300
C 	C 	0.20500 0.56442 0.74520 0.37700
C 	C 	0.35420 0.79150 0.57310 0.38300
C 	C 	0.31490 0.54705 0.31110 0.25400
C 	C 	0.25440 0.52803 0.21000 -0.20000
C 	C 	0.32370 0.51630 0.13380 0.00800
C 	C 	0.45080 0.52390 0.16000 -0.13200
H 	H 	0.49700 0.51540 0.10960 0.09600
C 	C 	0.50800 0.54400 0.26080 0.09500
H 	H 	0.59270 0.55000 0.27750 -0.00100
C 	C 	0.44090 0.55530 0.33740 -0.24900
H 	H 	0.48010 0.56830 0.40540 0.11200
C 	C 	0.11800 0.51399 0.18750 0.45700
C 	C 	0.26210 0.49110 0.02520 0.30400
O 	O 	0.18130 0.49338 0.73860 -0.47100
O 	O 	0.19670 0.60649 0.82034 -0.51000
O 	O 	0.33540 0.82918 0.65081 -0.45700
O 	O 	0.39870 0.81831 0.50080 -0.52700
O 	O 	0.24090 0.54783 0.38340 -0.27500
O 	O 	0.31860 0.45255 0.97240 -0.36800
O 	O 	0.14990 0.50916 0.99132 -0.57800
O 	O 	0.08210 0.44698 0.18406 -0.52000
O 	O 	0.04950 0.57178 0.17510 -0.51800
