data_crystal

_cell_length_a 9.50540
_cell_length_b 23.47600
_cell_length_c 27.62900
_cell_angle_alpha 90.00000
_cell_angle_beta  90.00000
_cell_angle_gamma 90.00000

_symmetry_space_group_name_	'P 1'
_symmetry_space_group_name_H-M	'P 1'

loop_
_symmetry_equiv_pos_as_xyz
  x,y,z

loop_
_atom_site_label
_atom_site_type_symbol
_atom_site_fract_x
_atom_site_fract_y
_atom_site_fract_z
_atom_site_charge
Ca	Ca	0.34928 0.70144 0.87208 1.50000
Ca	Ca	0.65072 0.79856 0.87208 1.50100
Ca	Ca	0.34928 0.29856 0.62792 1.50000
Ca	Ca	0.65072 0.20144 0.62792 1.50100
Ca	Ca	0.65072 0.29856 0.12792 1.50100
Ca	Ca	0.34928 0.20144 0.12792 1.49900
Ca	Ca	0.65072 0.70144 0.37208 1.50000
Ca	Ca	0.34928 0.79856 0.37208 1.49900
Ca	Ca	0.00000 0.75000 0.89330 1.51100
Ca	Ca	0.00000 0.25000 0.60670 1.51100
Ca	Ca	0.00000 0.25000 0.10670 1.51100
Ca	Ca	0.00000 0.75000 0.39330 1.51100
P 	P 	0.31160 0.08372 0.83890 0.07400
P 	P 	0.68840 0.41628 0.83890 0.05800
P 	P 	0.31160 0.91628 0.66110 0.07400
P 	P 	0.68840 0.58372 0.66110 0.05800
P 	P 	0.68840 0.91628 0.16110 0.05800
P 	P 	0.31160 0.58372 0.16110 0.07400
P 	P 	0.68840 0.08372 0.33890 0.05800
P 	P 	0.31160 0.41628 0.33890 0.07400
H 	H 	0.44790 0.99390 0.79400 0.06300
H 	H 	0.45370 0.89430 0.79940 0.01400
H 	H 	0.14530 0.89960 0.89850 0.00400
H 	H 	0.14920 0.99740 0.89760 0.06000
H 	H 	0.43290 0.12960 0.92250 0.04400
H 	H 	0.35940 0.16350 0.99720 0.03500
H 	H 	0.95340 0.13310 0.95950 0.12700
H 	H 	0.03170 0.09880 0.88510 0.01400
H 	H 	0.25900 0.17760 0.77920 0.05300
H 	H 	0.09060 0.20680 0.72390 0.02700
H 	H 	0.87660 0.06020 0.74380 0.01500
H 	H 	0.05450 0.02920 0.79840 0.07300
H 	H 	0.55210 0.50610 0.79400 0.05900
H 	H 	0.54630 0.60570 0.79940 0.01300
H 	H 	0.85470 0.60040 0.89850 0.02100
H 	H 	0.85080 0.50260 0.89760 0.07300
H 	H 	0.56710 0.37040 0.92250 0.07600
H 	H 	0.64060 0.33650 0.99720 -0.01000
H 	H 	0.04660 0.36690 0.95950 -0.06600
H 	H 	0.96830 0.40120 0.88510 0.10900
H 	H 	0.74100 0.32240 0.77920 0.07400
H 	H 	0.90940 0.29320 0.72390 -0.00000
H 	H 	0.12340 0.43980 0.74380 0.02900
H 	H 	0.94550 0.47080 0.79840 0.05700
H 	H 	0.44790 0.00610 0.70600 0.06300
H 	H 	0.45370 0.10570 0.70060 0.01400
H 	H 	0.14530 0.10040 0.60150 0.00400
H 	H 	0.14920 0.00260 0.60240 0.06000
H 	H 	0.43290 0.87040 0.57750 0.04300
H 	H 	0.35940 0.83650 0.50280 0.03500
H 	H 	0.95340 0.86690 0.54050 0.12700
H 	H 	0.03170 0.90120 0.61490 0.01400
H 	H 	0.25900 0.82240 0.72080 0.05300
H 	H 	0.09060 0.79320 0.77610 0.02700
H 	H 	0.87660 0.93980 0.75620 0.01500
H 	H 	0.05450 0.97080 0.70160 0.07300
H 	H 	0.55210 0.49390 0.70600 0.05900
H 	H 	0.54630 0.39430 0.70060 0.01300
H 	H 	0.85470 0.39960 0.60150 0.02100
H 	H 	0.85080 0.49740 0.60240 0.07300
H 	H 	0.56710 0.62960 0.57750 0.07600
H 	H 	0.64060 0.66350 0.50280 -0.01000
H 	H 	0.04660 0.63310 0.54050 -0.06600
H 	H 	0.96830 0.59880 0.61490 0.10900
H 	H 	0.74100 0.67760 0.72080 0.07400
H 	H 	0.90940 0.70680 0.77610 -0.00000
H 	H 	0.12340 0.56020 0.75620 0.02900
H 	H 	0.94550 0.52920 0.70160 0.05700
H 	H 	0.55210 0.00610 0.20600 0.05900
H 	H 	0.54630 0.10570 0.20060 0.01300
H 	H 	0.85470 0.10040 0.10150 0.02100
H 	H 	0.85080 0.00260 0.10240 0.07300
H 	H 	0.56710 0.87040 0.07750 0.07600
H 	H 	0.64060 0.83650 0.00280 -0.01000
H 	H 	0.04660 0.86690 0.04050 -0.06600
H 	H 	0.96830 0.90120 0.11490 0.10900
H 	H 	0.74100 0.82240 0.22080 0.07400
H 	H 	0.90940 0.79320 0.27610 -0.00000
H 	H 	0.12340 0.93980 0.25620 0.02900
H 	H 	0.94550 0.97080 0.20160 0.05700
H 	H 	0.44790 0.49390 0.20600 0.06300
H 	H 	0.45370 0.39430 0.20060 0.01400
H 	H 	0.14530 0.39960 0.10150 0.00400
H 	H 	0.14920 0.49740 0.10240 0.06000
H 	H 	0.43290 0.62960 0.07750 0.04300
H 	H 	0.35940 0.66350 0.00280 0.03500
H 	H 	0.95340 0.63310 0.04050 0.12700
H 	H 	0.03170 0.59880 0.11490 0.01400
H 	H 	0.25900 0.67760 0.22080 0.05300
H 	H 	0.09060 0.70680 0.27610 0.02700
H 	H 	0.87660 0.56020 0.25620 0.01500
H 	H 	0.05450 0.52920 0.20160 0.07300
H 	H 	0.55210 0.99390 0.29400 0.05900
H 	H 	0.54630 0.89430 0.29940 0.01300
H 	H 	0.85470 0.89960 0.39850 0.02100
H 	H 	0.85080 0.99740 0.39760 0.07300
H 	H 	0.56710 0.12960 0.42250 0.07600
H 	H 	0.64060 0.16350 0.49720 -0.01000
H 	H 	0.04660 0.13310 0.45950 -0.06600
H 	H 	0.96830 0.09880 0.38510 0.10900
H 	H 	0.74100 0.17760 0.27920 0.07400
H 	H 	0.90940 0.20680 0.22390 -0.00000
H 	H 	0.12340 0.06020 0.24380 0.02900
H 	H 	0.94550 0.02920 0.29840 0.05700
H 	H 	0.44790 0.50610 0.29400 0.06300
H 	H 	0.45370 0.60570 0.29940 0.01400
H 	H 	0.14530 0.60040 0.39850 0.00400
H 	H 	0.14920 0.50260 0.39760 0.06000
H 	H 	0.43290 0.37040 0.42250 0.04300
H 	H 	0.35940 0.33650 0.49720 0.03500
H 	H 	0.95340 0.36690 0.45950 0.12800
H 	H 	0.03170 0.40120 0.38510 0.01400
H 	H 	0.25900 0.32240 0.27920 0.05300
H 	H 	0.09060 0.29320 0.22390 0.02700
H 	H 	0.87660 0.43980 0.24380 0.01500
H 	H 	0.05450 0.47080 0.29840 0.07300
C 	C 	0.29910 0.00630 0.84458 0.02400
C 	C 	0.38730 0.97490 0.81612 -0.10900
C 	C 	0.38990 0.91530 0.81889 0.04300
C 	C 	0.29960 0.88730 0.85008 -0.17700
C 	C 	0.20970 0.91870 0.87780 0.06400
C 	C 	0.20980 0.97670 0.87660 -0.12300
C 	C 	0.31080 0.82440 0.85490 0.40300
C 	C 	0.23860 0.11000 0.89669 -0.03200
C 	C 	0.33540 0.13010 0.93010 -0.04700
C 	C 	0.29170 0.15090 0.97430 -0.03000
C 	C 	0.14800 0.15360 0.98571 -0.03700
C 	C 	0.05100 0.13300 0.95220 -0.14300
C 	C 	0.09850 0.11210 0.90810 -0.00200
C 	C 	0.09940 0.17950 0.03130 0.25800
C 	C 	0.17090 0.10080 0.79534 0.03000
C 	C 	0.18150 0.15340 0.77220 -0.08200
C 	C 	0.08130 0.17080 0.73935 -0.03300
C 	C 	0.96820 0.13670 0.72868 -0.07700
C 	C 	0.95490 0.08390 0.75070 0.10000
C 	C 	0.06070 0.06590 0.78400 -0.16900
C 	C 	0.85760 0.15740 0.69459 0.37500
C 	C 	0.70090 0.49370 0.84458 0.02600
C 	C 	0.61270 0.52510 0.81612 -0.10800
C 	C 	0.61010 0.58470 0.81889 0.04000
C 	C 	0.70040 0.61270 0.85008 -0.17000
C 	C 	0.79030 0.58130 0.87780 0.06900
C 	C 	0.79020 0.52330 0.87660 -0.11800
C 	C 	0.68920 0.67560 0.85490 0.40000
C 	C 	0.76140 0.39000 0.89669 0.07500
C 	C 	0.66460 0.36990 0.93010 -0.15700
C 	C 	0.70830 0.34910 0.97430 0.10900
C 	C 	0.85200 0.34640 0.98571 -0.22000
C 	C 	0.94900 0.36700 0.95220 0.21900
C 	C 	0.90150 0.38790 0.90810 -0.19800
C 	C 	0.90060 0.32050 0.03130 0.46000
C 	C 	0.82910 0.39920 0.79534 0.02400
C 	C 	0.81850 0.34660 0.77220 -0.12800
C 	C 	0.91870 0.32920 0.73935 0.14000
C 	C 	0.03180 0.36330 0.72868 -0.20400
C 	C 	0.04510 0.41610 0.75070 -0.01400
C 	C 	0.93930 0.43410 0.78400 -0.03800
C 	C 	0.14240 0.34260 0.69459 0.40200
C 	C 	0.29910 0.99370 0.65542 0.02400
C 	C 	0.38730 0.02510 0.68388 -0.10900
C 	C 	0.38990 0.08470 0.68111 0.04200
C 	C 	0.29960 0.11270 0.64992 -0.17700
C 	C 	0.20970 0.08130 0.62220 0.06400
C 	C 	0.20980 0.02330 0.62340 -0.12300
C 	C 	0.31080 0.17560 0.64510 0.40300
C 	C 	0.23860 0.89000 0.60331 -0.03200
C 	C 	0.33540 0.86990 0.56990 -0.04700
C 	C 	0.29170 0.84910 0.52570 -0.03000
C 	C 	0.14800 0.84640 0.51429 -0.03600
C 	C 	0.05100 0.86700 0.54780 -0.14300
C 	C 	0.09850 0.88790 0.59190 -0.00100
C 	C 	0.09940 0.82050 0.46870 0.25800
C 	C 	0.17090 0.89920 0.70466 0.03000
C 	C 	0.18150 0.84660 0.72780 -0.08200
C 	C 	0.08130 0.82920 0.76065 -0.03300
C 	C 	0.96820 0.86330 0.77132 -0.07700
C 	C 	0.95490 0.91610 0.74930 0.10000
C 	C 	0.06070 0.93410 0.71600 -0.16900
C 	C 	0.85760 0.84260 0.80541 0.37500
C 	C 	0.70090 0.50630 0.65542 0.02600
C 	C 	0.61270 0.47490 0.68388 -0.10800
C 	C 	0.61010 0.41530 0.68111 0.04000
C 	C 	0.70040 0.38730 0.64992 -0.17000
C 	C 	0.79030 0.41870 0.62220 0.06900
C 	C 	0.79020 0.47670 0.62340 -0.11800
C 	C 	0.68920 0.32440 0.64510 0.40000
C 	C 	0.76140 0.61000 0.60331 0.07500
C 	C 	0.66460 0.63010 0.56990 -0.15700
C 	C 	0.70830 0.65090 0.52570 0.10900
C 	C 	0.85200 0.65360 0.51429 -0.22000
C 	C 	0.94900 0.63300 0.54780 0.22000
C 	C 	0.90150 0.61210 0.59190 -0.19900
C 	C 	0.90060 0.67950 0.46870 0.46100
C 	C 	0.82910 0.60080 0.70466 0.02400
C 	C 	0.81850 0.65340 0.72780 -0.12800
C 	C 	0.91870 0.67080 0.76065 0.14000
C 	C 	0.03180 0.63670 0.77132 -0.20400
C 	C 	0.04510 0.58390 0.74930 -0.01400
C 	C 	0.93930 0.56590 0.71600 -0.03800
C 	C 	0.14240 0.65740 0.80541 0.40200
C 	C 	0.70090 0.99370 0.15542 0.02600
C 	C 	0.61270 0.02510 0.18388 -0.10800
C 	C 	0.61010 0.08470 0.18111 0.04000
C 	C 	0.70040 0.11270 0.14992 -0.17000
C 	C 	0.79030 0.08130 0.12220 0.06900
C 	C 	0.79020 0.02330 0.12340 -0.11800
C 	C 	0.68920 0.17560 0.14510 0.40000
C 	C 	0.76140 0.89000 0.10331 0.07500
C 	C 	0.66460 0.86990 0.06990 -0.15700
C 	C 	0.70830 0.84910 0.02570 0.10900
C 	C 	0.85200 0.84640 0.01429 -0.21900
C 	C 	0.94900 0.86700 0.04780 0.21900
C 	C 	0.90150 0.88790 0.09190 -0.19800
C 	C 	0.90060 0.82050 0.96870 0.46000
C 	C 	0.82910 0.89920 0.20466 0.02400
C 	C 	0.81850 0.84660 0.22780 -0.12800
C 	C 	0.91870 0.82920 0.26065 0.14000
C 	C 	0.03180 0.86330 0.27132 -0.20400
C 	C 	0.04510 0.91610 0.24930 -0.01400
C 	C 	0.93930 0.93410 0.21600 -0.03800
C 	C 	0.14240 0.84260 0.30541 0.40200
C 	C 	0.29910 0.50630 0.15542 0.02400
C 	C 	0.38730 0.47490 0.18388 -0.10900
C 	C 	0.38990 0.41530 0.18111 0.04300
C 	C 	0.29960 0.38730 0.14992 -0.17700
C 	C 	0.20970 0.41870 0.12220 0.06400
C 	C 	0.20980 0.47670 0.12340 -0.12300
C 	C 	0.31080 0.32440 0.14510 0.40300
C 	C 	0.23860 0.61000 0.10331 -0.03200
C 	C 	0.33540 0.63010 0.06990 -0.04700
C 	C 	0.29170 0.65090 0.02570 -0.03000
C 	C 	0.14800 0.65360 0.01429 -0.03700
C 	C 	0.05100 0.63300 0.04780 -0.14300
C 	C 	0.09850 0.61210 0.09190 -0.00100
C 	C 	0.09940 0.67950 0.96870 0.25800
C 	C 	0.17090 0.60080 0.20466 0.03000
C 	C 	0.18150 0.65340 0.22780 -0.08200
C 	C 	0.08130 0.67080 0.26065 -0.03300
C 	C 	0.96820 0.63670 0.27132 -0.07700
C 	C 	0.95490 0.58390 0.24930 0.10100
C 	C 	0.06070 0.56590 0.21600 -0.16900
C 	C 	0.85760 0.65740 0.30541 0.37500
C 	C 	0.70090 0.00630 0.34458 0.02600
C 	C 	0.61270 0.97490 0.31612 -0.10700
C 	C 	0.61010 0.91530 0.31889 0.04000
C 	C 	0.70040 0.88730 0.35008 -0.16900
C 	C 	0.79030 0.91870 0.37780 0.06900
C 	C 	0.79020 0.97670 0.37660 -0.11800
C 	C 	0.68920 0.82440 0.35490 0.40000
C 	C 	0.76140 0.11000 0.39669 0.07500
C 	C 	0.66460 0.13010 0.43010 -0.15700
C 	C 	0.70830 0.15090 0.47430 0.10900
C 	C 	0.85200 0.15360 0.48571 -0.22000
C 	C 	0.94900 0.13300 0.45220 0.21900
C 	C 	0.90150 0.11210 0.40810 -0.19800
C 	C 	0.90060 0.17950 0.53130 0.46100
C 	C 	0.82910 0.10080 0.29534 0.02400
C 	C 	0.81850 0.15340 0.27220 -0.12800
C 	C 	0.91870 0.17080 0.23935 0.14000
C 	C 	0.03180 0.13670 0.22868 -0.20400
C 	C 	0.04510 0.08390 0.25070 -0.01400
C 	C 	0.93930 0.06590 0.28400 -0.03800
C 	C 	0.14240 0.15740 0.19459 0.40200
C 	C 	0.29910 0.49370 0.34458 0.02400
C 	C 	0.38730 0.52510 0.31612 -0.10900
C 	C 	0.38990 0.58470 0.31889 0.04300
C 	C 	0.29960 0.61270 0.35008 -0.17700
C 	C 	0.20970 0.58130 0.37780 0.06400
C 	C 	0.20980 0.52330 0.37660 -0.12300
C 	C 	0.31080 0.67560 0.35490 0.40300
C 	C 	0.23860 0.39000 0.39669 -0.03200
C 	C 	0.33540 0.36990 0.43010 -0.04700
C 	C 	0.29170 0.34910 0.47430 -0.03000
C 	C 	0.14800 0.34640 0.48571 -0.03600
C 	C 	0.05100 0.36700 0.45220 -0.14400
C 	C 	0.09850 0.38790 0.40810 -0.00100
C 	C 	0.09940 0.32050 0.53130 0.25700
C 	C 	0.17090 0.39920 0.29534 0.03000
C 	C 	0.18150 0.34660 0.27220 -0.08200
C 	C 	0.08130 0.32920 0.23935 -0.03300
C 	C 	0.96820 0.36330 0.22868 -0.07700
C 	C 	0.95490 0.41610 0.25070 0.10100
C 	C 	0.06070 0.43410 0.28400 -0.16900
C 	C 	0.85760 0.34260 0.19459 0.37500
O 	O 	0.21400 0.79779 0.87628 -0.53600
O 	O 	0.41810 0.79905 0.83877 -0.56200
O 	O 	0.96910 0.18360 0.03907 -0.32200
O 	O 	0.18880 0.19751 0.06219 -0.52800
O 	O 	0.88770 0.19655 0.66583 -0.54300
O 	O 	0.73650 0.13600 0.69505 -0.41200
O 	O 	0.78600 0.70221 0.87628 -0.51800
O 	O 	0.58190 0.70095 0.83877 -0.56100
O 	O 	0.03090 0.31640 0.03907 -0.45300
O 	O 	0.81120 0.30249 0.06219 -0.56000
O 	O 	0.11230 0.30345 0.66583 -0.59400
O 	O 	0.26350 0.36400 0.69505 -0.42900
O 	O 	0.21400 0.20221 0.62372 -0.53600
O 	O 	0.41810 0.20095 0.66123 -0.56200
O 	O 	0.96910 0.81640 0.46093 -0.32200
O 	O 	0.18880 0.80249 0.43781 -0.52800
O 	O 	0.88770 0.80345 0.83417 -0.54300
O 	O 	0.73650 0.86400 0.80495 -0.41200
O 	O 	0.78600 0.29779 0.62372 -0.51800
O 	O 	0.58190 0.29905 0.66123 -0.56100
O 	O 	0.03090 0.68360 0.46093 -0.45300
O 	O 	0.81120 0.69751 0.43781 -0.56000
O 	O 	0.11230 0.69655 0.83417 -0.59400
O 	O 	0.26350 0.63600 0.80495 -0.42900
O 	O 	0.78600 0.20221 0.12372 -0.51800
O 	O 	0.58190 0.20095 0.16123 -0.56100
O 	O 	0.03090 0.81640 0.96093 -0.45300
O 	O 	0.81120 0.80249 0.93781 -0.56000
O 	O 	0.11230 0.80345 0.33417 -0.59400
O 	O 	0.26350 0.86400 0.30495 -0.42900
O 	O 	0.21400 0.29779 0.12372 -0.53600
O 	O 	0.41810 0.29905 0.16123 -0.56200
O 	O 	0.96910 0.68360 0.96093 -0.32200
O 	O 	0.18880 0.69751 0.93781 -0.52800
O 	O 	0.88770 0.69655 0.33417 -0.54300
O 	O 	0.73650 0.63600 0.30495 -0.41200
O 	O 	0.78600 0.79779 0.37628 -0.51800
O 	O 	0.58190 0.79905 0.33877 -0.56100
O 	O 	0.03090 0.18360 0.53907 -0.45300
O 	O 	0.81120 0.19751 0.56219 -0.56000
O 	O 	0.11230 0.19655 0.16583 -0.59400
O 	O 	0.26350 0.13600 0.19505 -0.42900
O 	O 	0.21400 0.70221 0.37628 -0.53600
O 	O 	0.41810 0.70095 0.33877 -0.56200
O 	O 	0.96910 0.31640 0.53907 -0.32200
O 	O 	0.18880 0.30249 0.56219 -0.52800
O 	O 	0.88770 0.30345 0.16583 -0.54300
O 	O 	0.73650 0.36400 0.19505 -0.41200
O 	O 	0.50000 0.75000 0.93304 -0.43600
O 	O 	0.50000 0.25000 0.56696 -0.43600
O 	O 	0.50000 0.25000 0.06696 -0.43600
O 	O 	0.50000 0.75000 0.43304 -0.43600
