data_crystal

_cell_length_a 12.14550
_cell_length_b 17.00720
_cell_length_c 25.59370
_cell_angle_alpha 102.38500
_cell_angle_beta  90.00000
_cell_angle_gamma 90.00000

_symmetry_space_group_name_	'P 1'
_symmetry_space_group_name_H-M	'P 1'

loop_
_symmetry_equiv_pos_as_xyz
  x,y,z

loop_
_atom_site_label
_atom_site_type_symbol
_atom_site_fract_x
_atom_site_fract_y
_atom_site_fract_z
_atom_site_charge
Nd	Nd	0.02740 0.98537 0.41899 1.95400
Nd	Nd	0.50092 0.46075 0.41718 1.98500
Nd	Nd	0.02740 0.51463 0.08101 1.96600
Nd	Nd	0.50092 0.03925 0.08282 1.97800
Nd	Nd	0.97260 0.01463 0.58101 1.95500
Nd	Nd	0.49908 0.53925 0.58282 1.98600
Nd	Nd	0.97260 0.48537 0.91899 1.96700
Nd	Nd	0.49908 0.96075 0.91718 1.97900
H 	H 	0.01610 0.07540 0.23570 0.03700
H 	H 	0.90030 0.08350 0.15900 0.04200
H 	H 	0.23190 0.24800 0.60390 0.03500
H 	H 	0.32950 0.36620 0.58940 0.02500
H 	H 	0.63300 0.26750 0.59150 0.02500
H 	H 	0.74500 0.14660 0.57470 -0.03800
H 	H 	0.01610 0.42460 0.26430 0.03100
H 	H 	0.90030 0.41650 0.34100 0.04500
H 	H 	0.23190 0.25200 0.89610 0.03400
H 	H 	0.32950 0.13380 0.91060 0.02700
H 	H 	0.63300 0.23250 0.90850 0.02500
H 	H 	0.74500 0.35340 0.92530 -0.03800
H 	H 	0.98390 0.92460 0.76430 0.03700
H 	H 	0.09970 0.91650 0.84100 0.04200
H 	H 	0.76810 0.75200 0.39610 0.03500
H 	H 	0.67050 0.63380 0.41060 0.02500
H 	H 	0.36700 0.73250 0.40850 0.02500
H 	H 	0.25500 0.85340 0.42530 -0.03800
H 	H 	0.98390 0.57540 0.73570 0.03100
H 	H 	0.09970 0.58350 0.65900 0.04500
H 	H 	0.76810 0.74800 0.10390 0.03400
H 	H 	0.67050 0.86620 0.08940 0.02700
H 	H 	0.36700 0.76750 0.09150 0.02500
H 	H 	0.25500 0.64660 0.07470 -0.03800
C 	C 	0.89720 0.01210 0.26330 -0.10000
C 	C 	0.94610 0.05290 0.23010 -0.02100
C 	C 	0.87910 0.05770 0.18600 -0.02000
C 	C 	0.78120 0.02100 0.18700 -0.09300
C 	C 	0.94310 0.99660 0.31430 0.33800
C 	C 	0.68970 0.02020 0.14910 0.29900
C 	C 	0.18350 0.22080 0.52640 -0.13800
C 	C 	0.23470 0.26280 0.57100 -0.00600
C 	C 	0.29210 0.33050 0.56260 0.00900
C 	C 	0.28680 0.33800 0.51110 -0.14000
C 	C 	0.11590 0.14500 0.51890 0.46400
C 	C 	0.33910 0.39720 0.48500 0.42600
C 	C 	0.65880 0.28060 0.51560 -0.14400
C 	C 	0.66680 0.24660 0.55890 -0.01900
C 	C 	0.73100 0.17710 0.54930 0.02200
C 	C 	0.77090 0.15850 0.49820 -0.15900
C 	C 	0.60090 0.35670 0.51140 0.47900
C 	C 	0.84670 0.09220 0.47360 0.43000
C 	C 	0.89720 0.48790 0.23670 -0.09000
C 	C 	0.94610 0.44710 0.26990 -0.01300
C 	C 	0.87910 0.44230 0.31400 -0.02500
C 	C 	0.78120 0.47900 0.31300 -0.08600
C 	C 	0.94310 0.50340 0.18570 0.32900
C 	C 	0.68970 0.47980 0.35090 0.30100
C 	C 	0.18350 0.27920 0.97360 -0.13800
C 	C 	0.23470 0.23720 0.92900 -0.00300
C 	C 	0.29210 0.16950 0.93740 0.00500
C 	C 	0.28680 0.16200 0.98890 -0.13100
C 	C 	0.11590 0.35500 0.98110 0.46800
C 	C 	0.33910 0.10280 0.01500 0.41600
C 	C 	0.65880 0.21940 0.98440 -0.14400
C 	C 	0.66680 0.25340 0.94110 -0.02000
C 	C 	0.73100 0.32290 0.95070 0.02200
C 	C 	0.77090 0.34150 0.00180 -0.16000
C 	C 	0.60090 0.14330 0.98860 0.48000
C 	C 	0.84670 0.40780 0.02640 0.43300
C 	C 	0.10280 0.98790 0.73670 -0.10000
C 	C 	0.05390 0.94710 0.76990 -0.02100
C 	C 	0.12090 0.94230 0.81400 -0.02000
C 	C 	0.21880 0.97900 0.81300 -0.09300
C 	C 	0.05690 0.00340 0.68570 0.33800
C 	C 	0.31030 0.97980 0.85090 0.29900
C 	C 	0.81650 0.77920 0.47360 -0.13800
C 	C 	0.76530 0.73720 0.42900 -0.00600
C 	C 	0.70790 0.66950 0.43740 0.00900
C 	C 	0.71320 0.66200 0.48890 -0.14000
C 	C 	0.88410 0.85500 0.48110 0.46400
C 	C 	0.66090 0.60280 0.51500 0.42600
C 	C 	0.34120 0.71940 0.48440 -0.14400
C 	C 	0.33320 0.75340 0.44110 -0.01900
C 	C 	0.26900 0.82290 0.45070 0.02200
C 	C 	0.22910 0.84150 0.50180 -0.15900
C 	C 	0.39910 0.64330 0.48860 0.47900
C 	C 	0.15330 0.90780 0.52640 0.43000
C 	C 	0.10280 0.51210 0.76330 -0.09000
C 	C 	0.05390 0.55290 0.73010 -0.01300
C 	C 	0.12090 0.55770 0.68600 -0.02500
C 	C 	0.21880 0.52100 0.68700 -0.08600
C 	C 	0.05690 0.49660 0.81430 0.32900
C 	C 	0.31030 0.52020 0.64910 0.30100
C 	C 	0.81650 0.72080 0.02640 -0.13800
C 	C 	0.76530 0.76280 0.07100 -0.00300
C 	C 	0.70790 0.83050 0.06260 0.00500
C 	C 	0.71320 0.83800 0.01110 -0.13100
C 	C 	0.88410 0.64500 0.01890 0.46800
C 	C 	0.66090 0.89720 0.98500 0.41600
C 	C 	0.34120 0.78060 0.01560 -0.14400
C 	C 	0.33320 0.74660 0.05890 -0.02000
C 	C 	0.26900 0.67710 0.04930 0.02200
C 	C 	0.22910 0.65850 0.99820 -0.16000
C 	C 	0.39910 0.85670 0.01140 0.48000
C 	C 	0.15330 0.59220 0.97360 0.43300
S 	S 	0.76983 0.97787 0.24148 0.05600
S 	S 	0.20991 0.26159 0.47243 0.06200
S 	S 	0.72473 0.22498 0.46174 0.07800
S 	S 	0.76983 0.52213 0.25852 0.04500
S 	S 	0.20991 0.23841 0.02757 0.05600
S 	S 	0.72473 0.27502 0.03826 0.07800
S 	S 	0.23017 0.02213 0.75852 0.05600
S 	S 	0.79009 0.73841 0.52757 0.06200
S 	S 	0.27527 0.77502 0.53826 0.07800
S 	S 	0.23017 0.47787 0.74148 0.04500
S 	S 	0.79009 0.76159 0.97243 0.05600
S 	S 	0.27527 0.72498 0.96174 0.07800
O 	O 	0.89520 0.94810 0.33720 -0.40300
O 	O 	0.02840 0.03390 0.33350 -0.45700
O 	O 	0.70050 0.05920 0.11270 -0.41200
O 	O 	0.60110 0.98260 0.15430 -0.43800
O 	O 	0.08880 0.11398 0.47208 -0.51900
O 	O 	0.09300 0.11920 0.56010 -0.50800
O 	O 	0.38890 0.45760 0.51200 -0.56100
O 	O 	0.33490 0.38560 0.43470 -0.50400
O 	O 	0.57970 0.36510 0.46510 -0.51900
O 	O 	0.57990 0.40580 0.55450 -0.52700
O 	O 	0.86960 0.08330 0.42520 -0.43700
O 	O 	0.88780 0.04855 0.50245 -0.60100
O 	O 	0.89520 0.55190 0.16280 -0.40300
O 	O 	0.02840 0.46610 0.16650 -0.45900
O 	O 	0.70050 0.44080 0.38730 -0.41200
O 	O 	0.60110 0.51740 0.34570 -0.44200
O 	O 	0.08880 0.38602 0.02792 -0.52600
O 	O 	0.09300 0.38080 0.93990 -0.51200
O 	O 	0.38890 0.04240 0.98800 -0.55500
O 	O 	0.33490 0.11440 0.06530 -0.50100
O 	O 	0.57970 0.13490 0.03490 -0.52000
O 	O 	0.57990 0.09420 0.94550 -0.52600
O 	O 	0.86960 0.41670 0.07480 -0.43600
O 	O 	0.88780 0.45145 0.99755 -0.60300
O 	O 	0.10480 0.05190 0.66280 -0.40300
O 	O 	0.97160 0.96610 0.66650 -0.45700
O 	O 	0.29950 0.94080 0.88730 -0.41200
O 	O 	0.39890 0.01740 0.84570 -0.43800
O 	O 	0.91120 0.88602 0.52792 -0.51900
O 	O 	0.90700 0.88080 0.43990 -0.50800
O 	O 	0.61110 0.54240 0.48800 -0.56100
O 	O 	0.66510 0.61440 0.56530 -0.50400
O 	O 	0.42030 0.63490 0.53490 -0.51900
O 	O 	0.42010 0.59420 0.44550 -0.52700
O 	O 	0.13040 0.91670 0.57480 -0.43700
O 	O 	0.11220 0.95145 0.49755 -0.60100
O 	O 	0.10480 0.44810 0.83720 -0.40300
O 	O 	0.97160 0.53390 0.83350 -0.45900
O 	O 	0.29950 0.55920 0.61270 -0.41200
O 	O 	0.39890 0.48260 0.65430 -0.44200
O 	O 	0.91120 0.61398 0.97208 -0.52600
O 	O 	0.90700 0.61920 0.06010 -0.51200
O 	O 	0.61110 0.95760 0.01200 -0.55500
O 	O 	0.66510 0.88560 0.93470 -0.50100
O 	O 	0.42030 0.86510 0.96510 -0.52000
O 	O 	0.42010 0.90580 0.05450 -0.52600
O 	O 	0.13040 0.58330 0.92520 -0.43600
O 	O 	0.11220 0.54855 0.00245 -0.60300
