data_crystal

_cell_length_a 6.57710
_cell_length_b 11.12260
_cell_length_c 18.03300
_cell_angle_alpha 90.00000
_cell_angle_beta  97.60200
_cell_angle_gamma 90.00000

_symmetry_space_group_name_	'P 1'
_symmetry_space_group_name_H-M	'P 1'

loop_
_symmetry_equiv_pos_as_xyz
  x,y,z

loop_
_atom_site_label
_atom_site_type_symbol
_atom_site_fract_x
_atom_site_fract_y
_atom_site_fract_z
_atom_site_charge
Ca	Ca	0.25266 0.90663 0.47691 1.49100
S 	S 	0.11732 0.19898 0.71174 -0.00400
O 	O 	0.09550 0.09620 0.55836 -0.59300
O 	O 	0.42470 0.05675 0.56162 -0.64600
O 	O 	0.32440 0.32180 0.91011 -0.46600
O 	O 	0.00590 0.29400 0.85249 -0.32600
C 	C 	0.19460 0.28590 0.85670 0.33600
C 	C 	0.27550 0.09530 0.59173 0.44800
C 	C 	0.31340 0.13740 0.66982 -0.17800
C 	C 	0.49290 0.13720 0.71702 0.04100
H 	H 	0.61500 0.10610 0.70440 -0.02000
C 	C 	0.47410 0.18910 0.78708 -0.05900
H 	H 	0.58240 0.19600 0.82560 0.05000
C 	C 	0.27920 0.22820 0.79229 -0.07400
Ca	Ca	0.24734 0.40663 0.02309 1.49100
S 	S 	0.38268 0.69898 0.78826 -0.00600
O 	O 	0.40450 0.59620 0.94164 -0.59300
O 	O 	0.07530 0.55675 0.93838 -0.64300
O 	O 	0.17560 0.82180 0.58989 -0.46700
O 	O 	0.49410 0.79400 0.64751 -0.33000
C 	C 	0.30540 0.78590 0.64330 0.33700
C 	C 	0.22450 0.59530 0.90827 0.44900
C 	C 	0.18660 0.63740 0.83018 -0.18000
C 	C 	0.00710 0.63720 0.78298 0.04800
H 	H 	0.88500 0.60610 0.79560 -0.02400
C 	C 	0.02590 0.68910 0.71292 -0.05900
H 	H 	0.91760 0.69600 0.67440 0.04900
C 	C 	0.22080 0.72820 0.70771 -0.07400
Ca	Ca	0.74734 0.09337 0.52309 1.49200
S 	S 	0.88268 0.80102 0.28826 -0.00300
O 	O 	0.90450 0.90380 0.44164 -0.59200
O 	O 	0.57530 0.94325 0.43838 -0.64500
O 	O 	0.67560 0.67820 0.08989 -0.46600
O 	O 	0.99410 0.70600 0.14751 -0.32600
C 	C 	0.80540 0.71410 0.14330 0.33600
C 	C 	0.72450 0.90470 0.40827 0.44800
C 	C 	0.68660 0.86260 0.33018 -0.17800
C 	C 	0.50710 0.86280 0.28298 0.04100
H 	H 	0.38500 0.89390 0.29560 -0.02000
C 	C 	0.52590 0.81090 0.21292 -0.05900
H 	H 	0.41760 0.80400 0.17440 0.05000
C 	C 	0.72080 0.77180 0.20771 -0.07400
Ca	Ca	0.75266 0.59337 0.97691 1.49100
S 	S 	0.61732 0.30102 0.21174 -0.00600
O 	O 	0.59550 0.40380 0.05836 -0.59300
O 	O 	0.92470 0.44325 0.06162 -0.64300
O 	O 	0.82440 0.17820 0.41011 -0.46700
O 	O 	0.50590 0.20600 0.35249 -0.33000
C 	C 	0.69460 0.21410 0.35670 0.33700
C 	C 	0.77550 0.40470 0.09173 0.44900
C 	C 	0.81340 0.36260 0.16982 -0.18000
C 	C 	0.99290 0.36280 0.21702 0.04800
H 	H 	0.11500 0.39390 0.20440 -0.02400
C 	C 	0.97410 0.31090 0.28708 -0.05900
H 	H 	0.08240 0.30400 0.32560 0.04900
C 	C 	0.77920 0.27180 0.29229 -0.07400
