data_crystal

_cell_length_a 10.91300
_cell_length_b 23.19500
_cell_length_c 10.04300
_cell_angle_alpha 90.00000
_cell_angle_beta  104.15000
_cell_angle_gamma 90.00000

_symmetry_space_group_name_	'P 1'
_symmetry_space_group_name_H-M	'P 1'

loop_
_symmetry_equiv_pos_as_xyz
  x,y,z

loop_
_atom_site_label
_atom_site_type_symbol
_atom_site_fract_x
_atom_site_fract_y
_atom_site_fract_z
_atom_site_charge
O 	O 	0.19070 0.85193 0.21812 -0.45400
O 	O 	0.27734 0.76410 0.22532 -0.24000
O 	O 	0.53776 0.72176 0.90374 -0.39700
O 	O 	0.65622 0.79242 0.85100 -0.22600
C 	C 	0.36253 0.83771 0.11661 -0.07100
C 	C 	0.42619 0.79773 0.05517 -0.00300
H 	H 	0.41190 0.75850 0.06370 0.06200
C 	C 	0.51104 0.81610 0.98123 -0.04000
C 	C 	0.53446 0.87445 0.97080 -0.02700
H 	H 	0.59290 0.88660 0.92310 0.06200
C 	C 	0.47080 0.91510 0.03140 0.01200
C 	C 	0.38423 0.89636 0.10421 -0.03800
H 	H 	0.34100 0.92310 0.14450 0.04400
C 	C 	0.26823 0.81743 0.19301 0.34200
C 	C 	0.57273 0.77279 0.90730 0.34500
C 	C 	0.49170 0.97539 0.01200 -0.04700
O 	O 	0.69070 0.35193 0.21812 -0.44100
O 	O 	0.77734 0.26410 0.22532 -0.22900
O 	O 	0.03776 0.22176 0.90374 -0.43300
O 	O 	0.15622 0.29242 0.85100 -0.24700
C 	C 	0.86253 0.33771 0.11661 -0.09800
C 	C 	0.92619 0.29773 0.05517 0.11500
H 	H 	0.91190 0.25850 0.06370 0.04200
C 	C 	0.01104 0.31610 0.98123 -0.13100
C 	C 	0.03446 0.37445 0.97080 -0.06000
H 	H 	0.09290 0.38660 0.92310 0.05400
C 	C 	0.97080 0.41510 0.03140 0.02700
C 	C 	0.88423 0.39636 0.10421 -0.00400
H 	H 	0.84100 0.42310 0.14450 0.04500
C 	C 	0.76823 0.31743 0.19301 0.35800
C 	C 	0.07273 0.27279 0.90730 0.36500
C 	C 	0.99170 0.47539 0.01200 0.07800
O 	O 	0.80930 0.85193 0.28188 -0.41600
O 	O 	0.72266 0.76410 0.27468 -0.22700
O 	O 	0.46224 0.72176 0.59626 -0.40400
O 	O 	0.34378 0.79242 0.64900 -0.23800
C 	C 	0.63747 0.83771 0.38339 -0.06800
C 	C 	0.57381 0.79773 0.44483 0.02300
H 	H 	0.58810 0.75850 0.43630 0.05900
C 	C 	0.48896 0.81610 0.51877 -0.06100
C 	C 	0.46554 0.87445 0.52920 -0.03200
H 	H 	0.40710 0.88660 0.57690 0.05400
C 	C 	0.52920 0.91510 0.46860 0.01700
C 	C 	0.61577 0.89636 0.39579 -0.03100
H 	H 	0.65900 0.92310 0.35550 0.05300
C 	C 	0.73177 0.81743 0.30699 0.34400
C 	C 	0.42727 0.77279 0.59270 0.35100
C 	C 	0.50830 0.97539 0.48800 -0.01800
O 	O 	0.30930 0.35193 0.28188 -0.44000
O 	O 	0.22266 0.26410 0.27468 -0.24000
O 	O 	0.96224 0.22176 0.59626 -0.35800
O 	O 	0.84378 0.29242 0.64900 -0.21600
C 	C 	0.13747 0.33771 0.38339 -0.04100
C 	C 	0.07381 0.29773 0.44483 -0.09800
H 	H 	0.08810 0.25850 0.43630 0.07900
C 	C 	0.98896 0.31610 0.51877 0.03400
C 	C 	0.96554 0.37445 0.52920 -0.00100
H 	H 	0.90710 0.38660 0.57690 0.06300
C 	C 	0.02920 0.41510 0.46860 0.00500
C 	C 	0.11577 0.39636 0.39579 -0.06700
H 	H 	0.15900 0.42310 0.35550 0.05100
C 	C 	0.23177 0.31743 0.30699 0.33000
C 	C 	0.92727 0.27279 0.59270 0.32800
C 	C 	0.00830 0.47539 0.48800 -0.15500
O 	O 	0.80930 0.14807 0.78188 -0.41300
O 	O 	0.72266 0.23590 0.77468 -0.22400
O 	O 	0.46224 0.27824 0.09626 -0.41000
O 	O 	0.34378 0.20758 0.14900 -0.24300
C 	C 	0.63747 0.16229 0.88339 -0.07300
C 	C 	0.57381 0.20227 0.94483 0.04700
H 	H 	0.58810 0.24150 0.93630 0.05600
C 	C 	0.48896 0.18390 0.01877 -0.08000
C 	C 	0.46554 0.12555 0.02920 -0.04200
H 	H 	0.40710 0.11340 0.07690 0.05300
C 	C 	0.52920 0.08490 0.96860 0.02300
C 	C 	0.61577 0.10364 0.89579 -0.02600
H 	H 	0.65900 0.07690 0.85550 0.05300
C 	C 	0.73177 0.18257 0.80699 0.34700
C 	C 	0.42727 0.22721 0.09270 0.35500
C 	C 	0.50830 0.02461 0.98800 0.00200
O 	O 	0.30930 0.64807 0.78188 -0.43700
O 	O 	0.22266 0.73590 0.77468 -0.23600
O 	O 	0.96224 0.77824 0.09626 -0.36400
O 	O 	0.84378 0.70758 0.14900 -0.22100
C 	C 	0.13747 0.66229 0.88339 -0.04800
C 	C 	0.07381 0.70227 0.94483 -0.07100
H 	H 	0.08810 0.74150 0.93630 0.07600
C 	C 	0.98896 0.68390 0.01877 0.01300
C 	C 	0.96554 0.62555 0.02920 -0.00900
H 	H 	0.90710 0.61340 0.07690 0.06100
C 	C 	0.02920 0.58490 0.96860 0.00800
C 	C 	0.11577 0.60364 0.89579 -0.06100
H 	H 	0.15900 0.57690 0.85550 0.05100
C 	C 	0.23177 0.68257 0.80699 0.33400
C 	C 	0.92727 0.72721 0.09270 0.33300
C 	C 	0.00830 0.52461 0.98800 -0.12400
O 	O 	0.19070 0.14807 0.71812 -0.45200
O 	O 	0.27734 0.23590 0.72532 -0.23700
O 	O 	0.53776 0.27824 0.40374 -0.40200
O 	O 	0.65622 0.20758 0.35100 -0.23100
C 	C 	0.36253 0.16229 0.61661 -0.07600
C 	C 	0.42619 0.20227 0.55517 0.02100
H 	H 	0.41190 0.24150 0.56370 0.05900
C 	C 	0.51104 0.18390 0.48123 -0.05800
C 	C 	0.53446 0.12555 0.47080 -0.03700
H 	H 	0.59290 0.11340 0.42310 0.06100
C 	C 	0.47080 0.08490 0.53140 0.01800
C 	C 	0.38423 0.10364 0.60421 -0.03400
H 	H 	0.34100 0.07690 0.64450 0.04400
C 	C 	0.26823 0.18257 0.69301 0.34500
C 	C 	0.57273 0.22721 0.40730 0.34900
C 	C 	0.49170 0.02461 0.51200 -0.02700
O 	O 	0.69070 0.64807 0.71812 -0.43800
O 	O 	0.77734 0.73590 0.72532 -0.22500
O 	O 	0.03776 0.77824 0.40374 -0.43900
O 	O 	0.15622 0.70758 0.35100 -0.25300
C 	C 	0.86253 0.66229 0.61661 -0.10400
C 	C 	0.92619 0.70227 0.55517 0.14200
H 	H 	0.91190 0.74150 0.56370 0.03900
C 	C 	0.01104 0.68390 0.48123 -0.15200
C 	C 	0.03446 0.62555 0.47080 -0.06800
H 	H 	0.09290 0.61340 0.42310 0.05200
C 	C 	0.97080 0.58490 0.53140 0.03000
C 	C 	0.88423 0.60364 0.60421 0.00300
H 	H 	0.84100 0.57690 0.64450 0.04500
C 	C 	0.76823 0.68257 0.69301 0.36200
C 	C 	0.07273 0.72721 0.40730 0.36900
C 	C 	0.99170 0.52461 0.51200 0.10900
Mn	Mn	-0.00000 0.84591 0.25000 1.23900
Mn	Mn	0.50000 0.34591 0.25000 1.26500
Mn	Mn	-0.00000 0.15409 0.75000 1.24000
Mn	Mn	0.50000 0.65409 0.75000 1.26600
