data_crystal

_cell_length_a 9.82100
_cell_length_b 15.07600
_cell_length_c 16.55500
_cell_angle_alpha 111.21000
_cell_angle_beta  90.00000
_cell_angle_gamma 90.00000

_symmetry_space_group_name_	'P 1'
_symmetry_space_group_name_H-M	'P 1'

loop_
_symmetry_equiv_pos_as_xyz
  x,y,z

loop_
_atom_site_label
_atom_site_type_symbol
_atom_site_fract_x
_atom_site_fract_y
_atom_site_fract_z
_atom_site_charge
Mg	Mg	0.08092 0.34513 0.11278 1.44200
Mg	Mg	0.58092 0.15487 0.38722 1.45200
Mg	Mg	0.91908 0.65487 0.88722 1.46200
Mg	Mg	0.41908 0.84513 0.61278 1.45300
Mg	Mg	-0.00000 0.50000 -0.00000 1.46600
Mg	Mg	0.50000 0.00000 0.50000 1.47200
H 	H 	0.73490 0.32640 0.85020 0.04800
H 	H 	0.62120 0.21700 0.73160 0.05500
H 	H 	0.68800 0.01230 0.82970 0.01300
H 	H 	0.80840 0.12130 0.94530 0.02600
H 	H 	0.50480 0.51060 0.14430 -0.00400
H 	H 	0.30650 0.43910 0.91380 0.00300
H 	H 	0.23490 0.17360 0.64980 0.02800
H 	H 	0.12120 0.28300 0.76840 0.03000
H 	H 	0.18800 0.48770 0.67030 0.01500
H 	H 	0.30840 0.37870 0.55470 0.01500
H 	H 	0.00480 0.98940 0.35570 0.03800
H 	H 	0.80650 0.06090 0.58620 0.04800
H 	H 	0.26510 0.67360 0.14980 0.04700
H 	H 	0.37880 0.78300 0.26840 0.03100
H 	H 	0.31200 0.98770 0.17030 0.02200
H 	H 	0.19160 0.87870 0.05470 0.01500
H 	H 	0.49520 0.48940 0.85570 0.08400
H 	H 	0.69350 0.56090 0.08620 0.09100
H 	H 	0.76510 0.82640 0.35020 0.06600
H 	H 	0.87880 0.71700 0.23160 0.05900
H 	H 	0.81200 0.51230 0.32970 0.02400
H 	H 	0.69160 0.62130 0.44530 0.02800
H 	H 	0.99520 0.01060 0.64430 0.04100
H 	H 	0.19350 0.93910 0.41380 0.04500
C 	C 	0.86610 0.30590 0.98070 0.48200
C 	C 	0.78330 0.23380 0.90820 -0.11500
C 	C 	0.72680 0.26200 0.84580 0.01200
C 	C 	0.65720 0.19690 0.77540 -0.03500
C 	C 	0.64070 0.10380 0.76920 -0.07000
C 	C 	0.69760 0.07630 0.83300 -0.04100
C 	C 	0.76930 0.14140 0.90230 0.00500
C 	C 	0.56700 0.03340 0.69090 0.31900
C 	C 	0.26400 0.43930 0.07380 0.38800
C 	C 	0.38600 0.47230 0.03650 -0.22900
C 	C 	0.50250 0.50680 0.08580 0.10300
C 	C 	0.38420 0.46410 0.94880 0.14400
C 	C 	0.36610 0.19410 0.51930 0.42800
C 	C 	0.28330 0.26620 0.59180 -0.11600
C 	C 	0.22680 0.23800 0.65420 -0.01300
C 	C 	0.15720 0.30310 0.72460 -0.02100
C 	C 	0.14070 0.39620 0.73080 -0.10900
C 	C 	0.19760 0.42370 0.66700 -0.02200
C 	C 	0.26930 0.35860 0.59770 -0.01800
C 	C 	0.06700 0.46660 0.80910 0.42200
C 	C 	0.76400 0.06070 0.42620 0.33300
C 	C 	0.88600 0.02770 0.46350 -0.07600
C 	C 	0.00250 0.99320 0.41420 -0.02900
C 	C 	0.88420 0.03590 0.55120 -0.03300
C 	C 	0.13390 0.69410 0.01930 0.34400
C 	C 	0.21670 0.76620 0.09180 -0.08300
C 	C 	0.27320 0.73800 0.15420 -0.04200
C 	C 	0.34280 0.80310 0.22460 0.01200
C 	C 	0.35930 0.89620 0.23080 -0.13600
C 	C 	0.30240 0.92370 0.16700 0.01100
C 	C 	0.23070 0.85860 0.09770 -0.04600
C 	C 	0.43300 0.96660 0.30910 0.52700
C 	C 	0.73600 0.56070 0.92620 0.29500
C 	C 	0.61400 0.52770 0.96350 0.05800
C 	C 	0.49750 0.49320 0.91420 -0.12900
C 	C 	0.61580 0.53590 0.05120 -0.18400
C 	C 	0.63390 0.80590 0.48070 0.42100
C 	C 	0.71670 0.73380 0.40820 -0.08900
C 	C 	0.77320 0.76200 0.34580 -0.01000
C 	C 	0.84280 0.69690 0.27540 -0.00600
C 	C 	0.85930 0.60380 0.26920 -0.09200
C 	C 	0.80240 0.57630 0.33300 -0.01200
C 	C 	0.73070 0.64140 0.40230 -0.01700
C 	C 	0.93300 0.53340 0.19090 0.42200
C 	C 	0.23600 0.93930 0.57380 0.34800
C 	C 	0.11400 0.97230 0.53650 -0.08800
C 	C 	0.99750 0.00680 0.58580 0.00200
C 	C 	0.11580 0.96410 0.44880 -0.01300
O 	O 	0.92680 0.27490 0.03316 -0.59200
O 	O 	0.87000 0.38833 0.98198 -0.47900
O 	O 	0.54870 0.06071 0.62820 -0.49100
O 	O 	0.53270 0.95466 0.69461 -0.46200
O 	O 	0.27550 0.42380 0.14383 -0.52100
O 	O 	0.15390 0.41998 0.03166 -0.68900
O 	O 	0.42680 0.22510 0.46684 -0.57600
O 	O 	0.37000 0.11167 0.51802 -0.54100
O 	O 	0.04870 0.43929 0.87180 -0.50900
O 	O 	0.03270 0.54534 0.80539 -0.57500
O 	O 	0.77550 0.07620 0.35617 -0.48100
O 	O 	0.65390 0.08002 0.46834 -0.62800
O 	O 	0.07320 0.72510 0.96684 -0.51900
O 	O 	0.13000 0.61167 0.01802 -0.53300
O 	O 	0.45130 0.93929 0.37180 -0.49800
O 	O 	0.46730 0.04534 0.30539 -0.64500
O 	O 	0.72450 0.57620 0.85617 -0.43500
O 	O 	0.84610 0.58002 0.96834 -0.54700
O 	O 	0.57320 0.77490 0.53316 -0.55500
O 	O 	0.63000 0.88833 0.48198 -0.47300
O 	O 	0.95130 0.56071 0.12820 -0.47000
O 	O 	0.96730 0.45466 0.19461 -0.52700
O 	O 	0.22450 0.92380 0.64383 -0.46900
O 	O 	0.34610 0.91998 0.53166 -0.60200
