data_crystal

_cell_length_a 9.84880
_cell_length_b 10.61300
_cell_length_c 12.63360
_cell_angle_alpha 69.65800
_cell_angle_beta  73.77200
_cell_angle_gamma 62.53700

_symmetry_space_group_name_	'P 1'
_symmetry_space_group_name_H-M	'P 1'

loop_
_symmetry_equiv_pos_as_xyz
  x,y,z

loop_
_atom_site_label
_atom_site_type_symbol
_atom_site_fract_x
_atom_site_fract_y
_atom_site_fract_z
_atom_site_charge
Y 	Y 	0.04889 0.78007 0.69120 2.36200
Y 	Y 	0.95111 0.21993 0.30880 2.36200
H 	H 	0.24460 0.62680 0.06130 0.04300
H 	H 	0.57820 0.48560 0.81370 0.03600
H 	H 	0.38530 0.88970 0.67060 0.03100
H 	H 	0.36350 0.13400 0.34570 0.02500
H 	H 	0.65640 0.12810 0.92760 0.05300
H 	H 	0.55720 0.79650 0.93850 0.05200
H 	H 	0.75540 0.37320 0.93870 0.04300
H 	H 	0.42180 0.51440 0.18630 0.03600
H 	H 	0.61470 0.11030 0.32940 0.03100
H 	H 	0.63650 0.86600 0.65430 0.02500
H 	H 	0.34360 0.87190 0.07240 0.05300
H 	H 	0.44280 0.20350 0.06150 0.05200
C 	C 	0.39160 0.57040 0.92330 -0.07000
C 	C 	0.34800 0.57590 0.03560 -0.02700
C 	C 	0.54550 0.49240 0.88880 -0.02600
C 	C 	0.27540 0.64510 0.84090 0.30600
C 	C 	0.35080 0.01360 0.50980 -0.16100
C 	C 	0.43150 0.93370 0.60240 -0.01200
C 	C 	0.41840 0.08040 0.40730 -0.00600
C 	C 	0.18990 0.02560 0.51910 0.51200
C 	C 	0.63090 0.95440 0.91860 -0.05800
C 	C 	0.59380 0.07620 0.95660 -0.04300
C 	C 	0.53490 0.87810 0.96290 -0.02500
C 	C 	0.77440 0.90120 0.83600 0.31300
C 	C 	0.60840 0.42960 0.07670 -0.07000
C 	C 	0.65200 0.42410 0.96440 -0.02700
C 	C 	0.45450 0.50760 0.11120 -0.02600
C 	C 	0.72460 0.35490 0.15910 0.30600
C 	C 	0.64920 0.98640 0.49020 -0.16100
C 	C 	0.56850 0.06630 0.39760 -0.01200
C 	C 	0.58160 0.91960 0.59270 -0.00600
C 	C 	0.81010 0.97440 0.48090 0.51200
C 	C 	0.36910 0.04560 0.08140 -0.05800
C 	C 	0.40620 0.92380 0.04340 -0.04300
C 	C 	0.46510 0.12190 0.03710 -0.02500
C 	C 	0.22560 0.09880 0.16400 0.31300
O 	O 	0.13670 0.72390 0.87249 -0.48800
O 	O 	0.31630 0.62680 0.74137 -0.52300
O 	O 	0.13420 0.96010 0.61183 -0.65800
O 	O 	0.12190 0.10160 0.43328 -0.67900
O 	O 	0.81840 0.77600 0.82051 -0.51600
O 	O 	0.84980 0.97960 0.78368 -0.44100
O 	O 	0.86330 0.27610 0.12751 -0.48800
O 	O 	0.68370 0.37320 0.25863 -0.52300
O 	O 	0.86580 0.03990 0.38817 -0.65800
O 	O 	0.87810 0.89840 0.56672 -0.67900
O 	O 	0.18160 0.22400 0.17949 -0.51600
O 	O 	0.15020 0.02040 0.21632 -0.44100
