data_crystal

_cell_length_a 9.87390
_cell_length_b 10.47670
_cell_length_c 11.07350
_cell_angle_alpha 77.23000
_cell_angle_beta  76.42100
_cell_angle_gamma 66.16600

_symmetry_space_group_name_	'P 1'
_symmetry_space_group_name_H-M	'P 1'

loop_
_symmetry_equiv_pos_as_xyz
  x,y,z

loop_
_atom_site_label
_atom_site_type_symbol
_atom_site_fract_x
_atom_site_fract_y
_atom_site_fract_z
_atom_site_charge
Gd	Gd	0.94445 0.22750 0.82279 1.40300
Gd	Gd	0.05555 0.77250 0.17721 1.40300
H 	H 	0.64830 0.86070 0.15030 0.03700
H 	H 	0.59990 0.11680 0.82160 0.04400
H 	H 	0.43580 0.41450 0.70760 0.04500
H 	H 	0.73780 0.50280 0.42510 0.05700
H 	H 	0.31000 0.92150 0.50600 0.05600
H 	H 	0.45500 0.18360 0.60620 0.05000
H 	H 	0.35170 0.13930 0.84970 0.03700
H 	H 	0.40010 0.88320 0.17840 0.04400
H 	H 	0.56420 0.58550 0.29240 0.04500
H 	H 	0.26220 0.49720 0.57490 0.05700
H 	H 	0.69000 0.07850 0.49400 0.05600
H 	H 	0.54500 0.81640 0.39380 0.05000
C 	C 	0.64840 0.98630 0.98240 -0.12400
C 	C 	0.58880 0.91630 0.09010 -0.00400
C 	C 	0.55970 0.06990 0.89310 -0.00900
C 	C 	0.80840 0.97550 0.96610 0.41200
C 	C 	0.60710 0.44860 0.58010 -0.06200
C 	C 	0.46190 0.44860 0.62410 -0.02600
C 	C 	0.64220 0.50130 0.45540 -0.02700
C 	C 	0.72090 0.38970 0.66540 0.30200
C 	C 	0.35730 0.06520 0.56670 -0.05300
C 	C 	0.38600 0.95350 0.50340 -0.03100
C 	C 	0.47280 0.11000 0.56320 -0.02500
C 	C 	0.20670 0.13020 0.64420 0.29800
C 	C 	0.35160 0.01370 0.01760 -0.12400
C 	C 	0.41120 0.08370 0.90990 -0.00400
C 	C 	0.44030 0.93010 0.10690 -0.00900
C 	C 	0.19160 0.02450 0.03390 0.41200
C 	C 	0.39290 0.55140 0.41990 -0.06200
C 	C 	0.53810 0.55140 0.37590 -0.02600
C 	C 	0.35780 0.49870 0.54460 -0.02700
C 	C 	0.27910 0.61030 0.33460 0.30200
C 	C 	0.64270 0.93480 0.43330 -0.05300
C 	C 	0.61400 0.04650 0.49660 -0.03100
C 	C 	0.52720 0.89000 0.43680 -0.02500
C 	C 	0.79330 0.86980 0.35580 0.29800
O 	O 	0.85640 0.04570 0.87130 -0.44100
O 	O 	0.88270 0.89710 0.04980 -0.46500
O 	O 	0.85470 0.37840 0.62400 -0.35300
O 	O 	0.68310 0.34920 0.77970 -0.38300
O 	O 	0.17230 0.24690 0.68040 -0.36000
O 	O 	0.11810 0.06400 0.67630 -0.34100
O 	O 	0.14360 0.95430 0.12870 -0.44100
O 	O 	0.11730 0.10290 0.95020 -0.46500
O 	O 	0.14530 0.62160 0.37600 -0.35300
O 	O 	0.31690 0.65080 0.22030 -0.38300
O 	O 	0.82770 0.75310 0.31960 -0.36000
O 	O 	0.88190 0.93600 0.32370 -0.34100
