data_crystal

_audit_creation_method 'AiiDA-DDEC plugin'

_cell_length_a        13.57980
_cell_length_b        13.58535
_cell_length_c        13.59989

_cell_angle_alpha     87.44398
_cell_angle_beta     87.28063
_cell_angle_gamma     87.71392

_symmetry_space_group_name_Hall 'P 1'
_symmetry_space_group_name_H-M  'P 1'

loop_
_symmetry_equiv_pos_as_xyz
 'x,y,z'

loop_
_atom_site_label
_atom_site_type_symbol
_atom_site_fract_x
_atom_site_fract_y
_atom_site_fract_z
_atom_site_charge
Cu         Cu      0.02222   0.58369   0.01796   0.91908
Cu         Cu      0.01667   0.01755   0.58176   0.91904
Cu         Cu      0.58432   0.02203   0.01891   0.91831
Cu         Cu      0.41713   0.98156   0.97895   0.91948
Cu         Cu      0.97755   0.97823   0.41408   0.91856
Cu         Cu      0.98164   0.41653   0.97905   0.91853
H          H      -0.00138   0.43257   0.66359   0.13179
H          H       0.66188   0.00339   0.43273   0.13180
H          H       0.43593   0.66591   0.01034   0.13118
H          H       0.56322   0.01047   0.33363   0.13200
H          H       0.99385   0.33246   0.56384   0.13236
H          H       0.33651   0.56583   0.00772   0.13112
H          H       0.00362   0.56297   0.33314   0.13135
H          H       0.33017   0.01471   0.56247   0.13287
H          H       0.56756   0.33644   0.00788   0.13191
H          H       0.42983   0.01422   0.66249   0.13133
H          H      -0.00010   0.66275   0.43241   0.13160
H          H       0.66693   0.43643   0.00961   0.13173
H          H       0.01645   0.73534   0.73411   0.14126
H          H       0.73333   0.00983   0.73563   0.14054
H          H       0.73901   0.73983   0.01856   0.14049
H          H       0.26160   0.99082   0.26047   0.14135
H          H       0.98233   0.26090   0.26130   0.14156
H          H       0.26655   0.26365   0.98093   0.14184
C          C       0.00618   0.54954   0.81507   0.58515
C          C       0.00186   0.50905   0.63715  -0.12428
C          C       0.00698   0.58012   0.70808  -0.02721
C          C       0.81389   0.00070   0.54917   0.58593
C          C       0.63543   0.00693   0.50916  -0.12489
C          C       0.70677   0.00617   0.58014  -0.02952
C          C       0.55303   0.81908   0.00980   0.58449
C          C       0.51265   0.64031   0.01229  -0.12237
C          C       0.58370   0.71204   0.01425  -0.02694
C          C       0.44948  -0.00175   0.18181   0.58543
C          C       0.48639   0.00801   0.35933  -0.12340
C          C       0.41641   0.00120   0.28793  -0.02927
C          C       0.98513   0.18094   0.44705   0.58551
C          C       0.99285   0.35880   0.48728  -0.12486
C          C       0.98749   0.28783   0.41631  -0.02875
C          C       0.18534   0.45024   0.99126   0.58622
C          C       0.36298   0.48960   0.00341  -0.12406
C          C       0.29207   0.41891   0.99403  -0.02804
C          C       0.99566   0.44689   0.18107   0.58496
C          C      -0.00156   0.48653   0.35924  -0.12338
C          C       0.99323   0.41588   0.28797  -0.02890
C          C       0.18007   0.00045   0.44626   0.58452
C          C       0.35722   0.01022   0.48627  -0.12462
C          C       0.28689   0.00299   0.41515  -0.02867
C          C       0.45223   0.18507   0.99310   0.58516
C          C       0.49115   0.36254   0.00376  -0.12313
C          C       0.42065   0.29149   0.99475  -0.02949
C          C       0.54673   0.00926   0.81490   0.58681
C          C       0.50681   0.01303   0.63671  -0.12394
C          C       0.57787   0.01206   0.70805  -0.02802
C          C       0.00963   0.81481   0.54847   0.58584
C          C       0.00315   0.63660   0.50888  -0.12450
C          C       0.00911   0.70788   0.57942  -0.02834
C          C       0.81922   0.55321   0.01113   0.58596
C          C       0.64073   0.51290   0.01211  -0.12438
C          C       0.71217   0.58414   0.01462  -0.02733
C          C       0.00102   0.53553   0.53597   0.05996
C          C       0.01199   0.68000   0.67947  -0.09203
C          C       0.53402   0.01155   0.53575   0.06010
C          C       0.67835   0.01015   0.68018  -0.09081
C          C       0.53954   0.53927   0.01170   0.05811
C          C       0.68392   0.68423   0.01683  -0.09280
C          C       0.45859   0.01068   0.46004   0.05949
C          C       0.31608   0.99724   0.31553  -0.09266
C          C       0.99711   0.45979   0.46043   0.05929
C          C       0.98663   0.31601   0.31621  -0.09224
C          C       0.46405   0.46333   0.00677   0.05985
C          C       0.32075   0.31918   0.98852  -0.09275
O          O       0.02496   0.61583   0.87481  -0.53723
O          O       0.98619   0.45985   0.83854  -0.54124
O          O       0.87454   0.01419   0.61612  -0.53767
O          O       0.83685   0.98307   0.45898  -0.54055
O          O       0.62007   0.88014   0.02340  -0.53569
O          O       0.46305   0.84149   0.99136  -0.54356
O          O       0.38360   0.98125   0.12101  -0.53996
O          O       0.54056   0.01336   0.15994  -0.53859
O          O       0.96900   0.12098   0.38005  -0.53379
O          O       0.00040   0.15758   0.53748  -0.54465
O          O       0.12517   0.38429   0.97196  -0.53707
O          O       0.16233   0.54035   0.00921  -0.54275
O          O       0.97997   0.38012   0.12067  -0.53350
O          O       0.01370   0.53706   0.15807  -0.54358
O          O       0.12041   0.98079   0.38024  -0.53707
O          O       0.15685   0.01818   0.53637  -0.54028
O          O       0.38692   0.12498   0.97193  -0.53920
O          O       0.54156   0.16225   0.01375  -0.53804
O          O       0.61232   0.02840   0.87509  -0.54309
O          O       0.45769   0.98650   0.83793  -0.53561
O          O       0.02805   0.87484   0.61465  -0.53419
O          O       0.99053   0.83796   0.45877  -0.54509
O          O       0.88040   0.62016   0.02452  -0.53461
O          O       0.84154   0.46291   0.99387  -0.54524

