data_crystal

_cell_length_a 11.13770
_cell_length_b 11.13770
_cell_length_c 21.40350
_cell_angle_alpha 95.98480
_cell_angle_beta  95.98480
_cell_angle_gamma 107.08100

_symmetry_space_group_name_	'P 1'
_symmetry_space_group_name_H-M	'P 1'

loop_
_symmetry_equiv_pos_as_xyz
  x,y,z

loop_
_atom_site_label
_atom_site_type_symbol
_atom_site_fract_x
_atom_site_fract_y
_atom_site_fract_z
_atom_site_charge
Mn	Mn	0.49718 0.01598 0.80629 1.24200
Mn	Mn	0.98402 0.50282 0.69371 1.24200
Mn	Mn	0.50282 0.98402 0.19371 1.24200
Mn	Mn	0.01598 0.49718 0.30629 1.24200
Mn	Mn	0.75282 0.24718 0.75000 1.31400
Mn	Mn	0.24718 0.75282 0.25000 1.31400
H 	H 	0.39310 0.28590 0.92180 0.04200
H 	H 	0.73730 0.52110 0.90720 0.03800
H 	H 	0.72600 0.65860 0.99300 0.06000
H 	H 	0.65350 0.04790 0.60900 0.05200
H 	H 	0.27710 0.99030 0.60100 0.03200
H 	H 	0.25370 0.96850 0.49200 0.06800
H 	H 	0.01230 0.24030 0.53030 0.03600
H 	H 	0.90430 0.98050 0.64710 0.02700
H 	H 	0.93630 0.82670 0.57620 0.04700
H 	H 	0.71410 0.60690 0.57820 0.04200
H 	H 	0.47890 0.26270 0.59280 0.03900
H 	H 	0.34140 0.27400 0.50700 0.06000
H 	H 	0.95210 0.34650 0.89100 0.05200
H 	H 	0.00970 0.72290 0.89900 0.03400
H 	H 	0.03150 0.74630 0.00800 0.06400
H 	H 	0.75970 0.98770 0.96970 0.03900
H 	H 	0.01950 0.09570 0.85290 0.03000
H 	H 	0.17330 0.06370 0.92380 0.04600
H 	H 	0.60690 0.71410 0.07820 0.04200
H 	H 	0.26270 0.47890 0.09280 0.03800
H 	H 	0.27400 0.34140 0.00700 0.06000
H 	H 	0.34650 0.95210 0.39100 0.05200
H 	H 	0.72290 0.00970 0.39900 0.03200
H 	H 	0.74630 0.03150 0.50800 0.06800
H 	H 	0.98770 0.75970 0.46970 0.03600
H 	H 	0.09570 0.01950 0.35290 0.02700
H 	H 	0.06370 0.17330 0.42380 0.04700
H 	H 	0.28590 0.39310 0.42180 0.04200
H 	H 	0.52110 0.73730 0.40720 0.03900
H 	H 	0.65860 0.72600 0.49300 0.06000
H 	H 	0.04790 0.65350 0.10900 0.05200
H 	H 	0.99030 0.27710 0.10100 0.03400
H 	H 	0.96850 0.25370 0.99200 0.06400
H 	H 	0.24030 0.01230 0.03030 0.03900
H 	H 	0.98050 0.90430 0.14710 0.03000
H 	H 	0.82670 0.93630 0.07620 0.04600
C 	C 	0.44966 0.44352 0.98939 0.01700
C 	C 	0.45978 0.36112 0.93648 -0.03300
C 	C 	0.56514 0.38926 0.90644 -0.10200
C 	C 	0.66501 0.50179 0.92799 0.01700
C 	C 	0.65828 0.58372 0.97897 -0.09400
C 	C 	0.57501 0.29799 0.85125 0.39200
C 	C 	0.56099 0.01217 0.51776 0.02500
C 	C 	0.57311 0.02997 0.58489 -0.03700
C 	C 	0.46941 0.02135 0.61498 -0.09500
C 	C 	0.34820 0.99680 0.57985 0.01600
C 	C 	0.33429 0.98231 0.51510 -0.09700
C 	C 	0.48115 0.03167 0.68564 0.34200
C 	C 	0.01186 0.06250 0.49303 0.01200
C 	C 	0.99476 0.15624 0.53868 -0.02400
C 	C 	0.95309 0.12571 0.59458 -0.10700
C 	C 	0.93154 0.00106 0.60831 0.02200
C 	C 	0.94961 0.90919 0.56595 -0.09700
C 	C 	0.92325 0.22315 0.63988 0.38700
C 	C 	0.55648 0.55034 0.51061 0.01700
C 	C 	0.63888 0.54022 0.56352 -0.03200
C 	C 	0.61074 0.43486 0.59356 -0.10100
C 	C 	0.49821 0.33499 0.57201 0.01700
C 	C 	0.41628 0.34172 0.52103 -0.09400
C 	C 	0.70201 0.42499 0.64875 0.39200
C 	C 	0.98783 0.43901 0.98224 0.02100
C 	C 	0.97003 0.42689 0.91511 -0.03600
C 	C 	0.97865 0.53059 0.88502 -0.09500
C 	C 	0.00320 0.65180 0.92015 0.01300
C 	C 	0.01769 0.66571 0.98490 -0.08800
C 	C 	0.96833 0.51885 0.81436 0.34100
C 	C 	0.93750 0.98814 0.00697 0.01400
C 	C 	0.84376 0.00524 0.96132 -0.03100
C 	C 	0.87429 0.04691 0.90542 -0.10300
C 	C 	0.99894 0.06846 0.89169 0.01600
C 	C 	0.09081 0.05039 0.93405 -0.09400
C 	C 	0.77685 0.07675 0.86012 0.38500
C 	C 	0.55034 0.55648 0.01061 0.01700
C 	C 	0.54022 0.63888 0.06352 -0.03300
C 	C 	0.43486 0.61074 0.09356 -0.10200
C 	C 	0.33499 0.49821 0.07201 0.01700
C 	C 	0.34172 0.41628 0.02103 -0.09400
C 	C 	0.42499 0.70201 0.14875 0.39200
C 	C 	0.43901 0.98783 0.48224 0.02500
C 	C 	0.42689 0.97003 0.41511 -0.03700
C 	C 	0.53059 0.97865 0.38502 -0.09500
C 	C 	0.65180 0.00320 0.42015 0.01600
C 	C 	0.66571 0.01769 0.48490 -0.09700
C 	C 	0.51885 0.96833 0.31436 0.34200
C 	C 	0.98814 0.93750 0.50697 0.01200
C 	C 	0.00524 0.84376 0.46132 -0.02400
C 	C 	0.04691 0.87429 0.40542 -0.10700
C 	C 	0.06846 0.99894 0.39169 0.02200
C 	C 	0.05039 0.09081 0.43405 -0.09700
C 	C 	0.07675 0.77685 0.36012 0.38700
C 	C 	0.44352 0.44966 0.48939 0.01700
C 	C 	0.36112 0.45978 0.43648 -0.03200
C 	C 	0.38926 0.56514 0.40644 -0.10100
C 	C 	0.50179 0.66501 0.42799 0.01700
C 	C 	0.58372 0.65828 0.47897 -0.09400
C 	C 	0.29799 0.57501 0.35125 0.39200
C 	C 	0.01217 0.56099 0.01776 0.02100
C 	C 	0.02997 0.57311 0.08489 -0.03600
C 	C 	0.02135 0.46941 0.11498 -0.09500
C 	C 	0.99680 0.34820 0.07985 0.01300
C 	C 	0.98231 0.33429 0.01510 -0.08800
C 	C 	0.03167 0.48115 0.18564 0.34100
C 	C 	0.06250 0.01186 0.99303 0.01400
C 	C 	0.15624 0.99476 0.03868 -0.03100
C 	C 	0.12571 0.95309 0.09458 -0.10300
C 	C 	0.00106 0.93154 0.10831 0.01600
C 	C 	0.90919 0.94961 0.06595 -0.09400
C 	C 	0.22315 0.92325 0.13988 0.38500
O 	O 	0.66889 0.33173 0.82263 -0.44600
O 	O 	0.48706 0.19476 0.83867 -0.48800
O 	O 	0.59050 0.07512 0.71890 -0.53200
O 	O 	0.38403 0.99199 0.71100 -0.44400
O 	O 	0.86415 0.18247 0.68379 -0.44300
O 	O 	0.95913 0.33631 0.62996 -0.49400
O 	O 	0.66827 0.33111 0.67737 -0.44600
O 	O 	0.80524 0.51294 0.66133 -0.48800
O 	O 	0.92488 0.40950 0.78110 -0.53200
O 	O 	0.00801 0.61597 0.78900 -0.44300
O 	O 	0.81753 0.13585 0.81621 -0.44200
O 	O 	0.66369 0.04087 0.87004 -0.49400
O 	O 	0.33111 0.66827 0.17737 -0.44600
O 	O 	0.51294 0.80524 0.16133 -0.48800
O 	O 	0.40950 0.92488 0.28110 -0.53200
O 	O 	0.61597 0.00801 0.28900 -0.44400
O 	O 	0.13585 0.81753 0.31621 -0.44300
O 	O 	0.04087 0.66369 0.37004 -0.49400
O 	O 	0.33173 0.66889 0.32263 -0.44600
O 	O 	0.19476 0.48706 0.33867 -0.48800
O 	O 	0.07512 0.59050 0.21890 -0.53200
O 	O 	0.99199 0.38403 0.21100 -0.44300
O 	O 	0.18247 0.86415 0.18379 -0.44200
O 	O 	0.33631 0.95913 0.12996 -0.49400
