data_crystal

_cell_length_a 14.91800
_cell_length_b 15.59600
_cell_length_c 16.44200
_cell_angle_alpha 90.00000
_cell_angle_beta  105.60600
_cell_angle_gamma 90.00000

_symmetry_space_group_name_	'P 1'
_symmetry_space_group_name_H-M	'P 1'

loop_
_symmetry_equiv_pos_as_xyz
  x,y,z

loop_
_atom_site_label
_atom_site_type_symbol
_atom_site_fract_x
_atom_site_fract_y
_atom_site_fract_z
_atom_site_charge
Mn	Mn	0.25391 0.93160 0.96291 1.26500
Mn	Mn	0.27588 0.64594 0.04599 1.27000
Mn	Mn	0.24609 0.43160 0.53709 1.26700
Mn	Mn	0.22412 0.14594 0.45401 1.27000
Mn	Mn	0.74609 0.06840 0.03709 1.26500
Mn	Mn	0.72412 0.35406 0.95401 1.27000
Mn	Mn	0.75391 0.56840 0.46291 1.26700
Mn	Mn	0.77588 0.85406 0.54599 1.27000
H 	H 	0.27650 0.96550 0.23510 0.04200
H 	H 	0.31560 0.90520 0.59190 0.12500
H 	H 	0.26490 0.61160 0.77440 0.03900
H 	H 	0.23840 0.68200 0.42970 0.12700
H 	H 	0.27710 0.59580 0.30400 0.09300
H 	H 	0.27150 0.55520 0.38950 0.07800
H 	H 	0.27270 0.86840 0.78000 0.04400
H 	H 	0.25180 0.83600 0.43930 0.06800
H 	H 	0.23930 0.98100 0.70030 0.09700
H 	H 	0.22670 0.01570 0.60860 0.09200
H 	H 	0.28750 0.70830 0.23980 0.05600
H 	H 	0.40680 0.47230 0.34930 0.10800
H 	H 	0.27710 0.74090 0.56680 0.06600
H 	H 	0.10560 0.90030 0.49920 0.11800
H 	H 	0.95440 0.86500 0.46840 -0.02000
H 	H 	0.09450 0.96840 0.73010 0.11500
H 	H 	0.59640 0.68840 0.47910 -0.04900
H 	H 	0.94240 0.92910 0.69460 -0.01200
H 	H 	0.56270 0.45570 0.39040 -0.01600
H 	H 	0.43940 0.70690 0.44620 0.10900
H 	H 	0.22350 0.46550 0.26490 0.04100
H 	H 	0.18440 0.40520 0.90810 0.12700
H 	H 	0.23510 0.11160 0.72560 0.04000
H 	H 	0.26160 0.18200 0.07030 0.12700
H 	H 	0.22290 0.09580 0.19600 0.09100
H 	H 	0.22850 0.05520 0.11050 0.07600
H 	H 	0.22730 0.36840 0.72000 0.04600
H 	H 	0.24820 0.33600 0.06070 0.06800
H 	H 	0.26070 0.48100 0.79970 0.09600
H 	H 	0.27330 0.51570 0.89140 0.08700
H 	H 	0.21250 0.20830 0.26020 0.05600
H 	H 	0.09320 0.97230 0.15070 0.10400
H 	H 	0.22290 0.24090 0.93320 0.06700
H 	H 	0.39440 0.40030 0.00080 0.11500
H 	H 	0.54560 0.36500 0.03160 -0.01900
H 	H 	0.40550 0.46840 0.76990 0.11300
H 	H 	0.90360 0.18840 0.02090 -0.04700
H 	H 	0.55760 0.42910 0.80540 -0.01000
H 	H 	0.93730 0.95570 0.10960 -0.00400
H 	H 	0.06060 0.20690 0.05380 0.10500
H 	H 	0.72350 0.03450 0.76490 0.04200
H 	H 	0.68440 0.09480 0.40810 0.12500
H 	H 	0.73510 0.38840 0.22560 0.03900
H 	H 	0.76160 0.31800 0.57030 0.12700
H 	H 	0.72290 0.40420 0.69600 0.09300
H 	H 	0.72850 0.44480 0.61050 0.07800
H 	H 	0.72730 0.13160 0.22000 0.04400
H 	H 	0.74820 0.16400 0.56070 0.06800
H 	H 	0.76070 0.01900 0.29970 0.09700
H 	H 	0.77330 0.98430 0.39140 0.09200
H 	H 	0.71250 0.29170 0.76020 0.05600
H 	H 	0.59320 0.52770 0.65070 0.10800
H 	H 	0.72290 0.25910 0.43320 0.06600
H 	H 	0.89440 0.09970 0.50080 0.11800
H 	H 	0.04560 0.13500 0.53160 -0.02000
H 	H 	0.90550 0.03160 0.26990 0.11500
H 	H 	0.40360 0.31160 0.52090 -0.04900
H 	H 	0.05760 0.07090 0.30540 -0.01200
H 	H 	0.43730 0.54430 0.60960 -0.01600
H 	H 	0.56060 0.29310 0.55380 0.10900
H 	H 	0.77650 0.53450 0.73510 0.04100
H 	H 	0.81560 0.59480 0.09190 0.12700
H 	H 	0.76490 0.88840 0.27440 0.04000
H 	H 	0.73840 0.81800 0.92970 0.12700
H 	H 	0.77710 0.90420 0.80400 0.09100
H 	H 	0.77150 0.94480 0.88950 0.07600
H 	H 	0.77270 0.63160 0.28000 0.04600
H 	H 	0.75180 0.66400 0.93930 0.06800
H 	H 	0.73930 0.51900 0.20030 0.09600
H 	H 	0.72670 0.48430 0.10860 0.08700
H 	H 	0.78750 0.79170 0.73980 0.05600
H 	H 	0.90680 0.02770 0.84930 0.10400
H 	H 	0.77710 0.75910 0.06680 0.06700
H 	H 	0.60560 0.59970 0.99920 0.11500
H 	H 	0.45440 0.63500 0.96840 -0.01900
H 	H 	0.59450 0.53160 0.23010 0.11300
H 	H 	0.09640 0.81160 0.97910 -0.04700
H 	H 	0.44240 0.57090 0.19460 -0.01000
H 	H 	0.06270 0.04430 0.89040 -0.00400
H 	H 	0.93940 0.79310 0.94620 0.10500
C 	C 	0.28070 0.83650 0.22330 -0.09100
C 	C 	0.26140 0.91410 0.34460 -0.05300
C 	C 	0.28890 0.83420 0.13330 0.39600
C 	C 	0.25060 0.99690 0.38750 0.29200
C 	C 	0.26970 0.66440 0.66310 -0.05500
C 	C 	0.27340 0.91400 0.26270 -0.00000
C 	C 	0.26230 0.58120 0.61470 0.28100
C 	C 	0.26770 0.66360 0.74740 0.01300
C 	C 	0.29820 0.60200 0.36490 -0.16200
C 	C 	0.26990 0.73960 0.79100 -0.10600
C 	C 	0.27890 0.81980 0.66620 0.09000
C 	C 	0.27360 0.81740 0.75090 -0.05500
C 	C 	0.25930 0.83600 0.38500 -0.09300
C 	C 	0.21980 0.96540 0.64110 -0.18200
C 	C 	0.27990 0.75970 0.26590 -0.07200
C 	C 	0.26810 0.75820 0.34690 0.09600
C 	C 	0.44400 0.51730 0.37640 -0.21900
C 	C 	0.26380 0.73980 0.88120 0.42400
C 	C 	0.40300 0.59330 0.39200 0.17200
C 	C 	0.27540 0.74100 0.62290 -0.08200
C 	C 	0.11870 0.94050 0.61860 0.18200
C 	C 	0.07340 0.90750 0.53990 -0.22500
C 	C 	0.98230 0.88570 0.52230 0.12900
C 	C 	0.06710 0.94740 0.67620 -0.22200
C 	C 	0.55810 0.64360 0.45330 0.12700
C 	C 	0.97530 0.92350 0.65430 0.11600
C 	C 	0.53790 0.50810 0.40050 0.12600
C 	C 	0.46310 0.65540 0.43250 -0.21700
C 	C 	0.21930 0.33650 0.27670 -0.09100
C 	C 	0.23860 0.41410 0.15540 -0.05300
C 	C 	0.21110 0.33420 0.36670 0.39600
C 	C 	0.24940 0.49690 0.11250 0.29200
C 	C 	0.23030 0.16440 0.83690 -0.05300
C 	C 	0.22660 0.41400 0.23730 -0.00000
C 	C 	0.23770 0.08120 0.88530 0.28000
C 	C 	0.23230 0.16360 0.75260 0.01200
C 	C 	0.20180 0.10200 0.13510 -0.15700
C 	C 	0.23010 0.23960 0.70900 -0.10500
C 	C 	0.22110 0.31980 0.83380 0.09200
C 	C 	0.22640 0.31740 0.74910 -0.05600
C 	C 	0.24070 0.33600 0.11500 -0.09300
C 	C 	0.28020 0.46540 0.85890 -0.17300
C 	C 	0.22010 0.25970 0.23410 -0.07200
C 	C 	0.23190 0.25820 0.15310 0.09600
C 	C 	0.05600 0.01730 0.12360 -0.20300
C 	C 	0.23620 0.23980 0.61880 0.42400
C 	C 	0.09700 0.09330 0.10800 0.16200
C 	C 	0.22460 0.24100 0.87710 -0.08300
C 	C 	0.38130 0.44050 0.88140 0.17600
C 	C 	0.42660 0.40750 0.96010 -0.21600
C 	C 	0.51770 0.38570 0.97770 0.12400
C 	C 	0.43290 0.44740 0.82380 -0.21400
C 	C 	0.94190 0.14360 0.04670 0.11900
C 	C 	0.52470 0.42350 0.84570 0.10900
C 	C 	0.96210 0.00810 0.09950 0.10500
C 	C 	0.03690 0.15540 0.06750 -0.20700
C 	C 	0.71930 0.16350 0.77670 -0.09100
C 	C 	0.73860 0.08590 0.65540 -0.05300
C 	C 	0.71110 0.16580 0.86670 0.39600
C 	C 	0.74940 0.00310 0.61250 0.29200
C 	C 	0.73030 0.33560 0.33690 -0.05500
C 	C 	0.72660 0.08600 0.73730 -0.00000
C 	C 	0.73770 0.41880 0.38530 0.28100
C 	C 	0.73230 0.33640 0.25260 0.01300
C 	C 	0.70180 0.39800 0.63510 -0.16200
C 	C 	0.73010 0.26040 0.20900 -0.10600
C 	C 	0.72110 0.18020 0.33380 0.09000
C 	C 	0.72640 0.18260 0.24910 -0.05500
C 	C 	0.74070 0.16400 0.61500 -0.09300
C 	C 	0.78020 0.03460 0.35890 -0.18200
C 	C 	0.72010 0.24030 0.73410 -0.07200
C 	C 	0.73190 0.24180 0.65310 0.09600
C 	C 	0.55600 0.48270 0.62360 -0.21900
C 	C 	0.73620 0.26020 0.11880 0.42400
C 	C 	0.59700 0.40670 0.60800 0.17200
C 	C 	0.72460 0.25900 0.37710 -0.08200
C 	C 	0.88130 0.05950 0.38140 0.18200
C 	C 	0.92660 0.09250 0.46010 -0.22500
C 	C 	0.01770 0.11430 0.47770 0.12900
C 	C 	0.93290 0.05260 0.32380 -0.22200
C 	C 	0.44190 0.35640 0.54670 0.12700
C 	C 	0.02470 0.07650 0.34570 0.11600
C 	C 	0.46210 0.49190 0.59950 0.12600
C 	C 	0.53690 0.34460 0.56750 -0.21700
C 	C 	0.78070 0.66350 0.72330 -0.09100
C 	C 	0.76140 0.58590 0.84460 -0.05300
C 	C 	0.78890 0.66580 0.63330 0.39600
C 	C 	0.75060 0.50310 0.88750 0.29200
C 	C 	0.76970 0.83560 0.16310 -0.05300
C 	C 	0.77340 0.58600 0.76270 -0.00000
C 	C 	0.76230 0.91880 0.11470 0.28000
C 	C 	0.76770 0.83640 0.24740 0.01200
C 	C 	0.79820 0.89800 0.86490 -0.15700
C 	C 	0.76990 0.76040 0.29100 -0.10500
C 	C 	0.77890 0.68020 0.16620 0.09200
C 	C 	0.77360 0.68260 0.25090 -0.05600
C 	C 	0.75930 0.66400 0.88500 -0.09300
C 	C 	0.71980 0.53460 0.14110 -0.17300
C 	C 	0.77990 0.74030 0.76590 -0.07200
C 	C 	0.76810 0.74180 0.84690 0.09600
C 	C 	0.94400 0.98270 0.87640 -0.20300
C 	C 	0.76380 0.76020 0.38120 0.42400
C 	C 	0.90300 0.90670 0.89200 0.16200
C 	C 	0.77540 0.75900 0.12290 -0.08300
C 	C 	0.61870 0.55950 0.11860 0.17600
C 	C 	0.57340 0.59250 0.03990 -0.21600
C 	C 	0.48230 0.61430 0.02230 0.12400
C 	C 	0.56710 0.55260 0.17620 -0.21400
C 	C 	0.05810 0.85640 0.95330 0.11900
C 	C 	0.47530 0.57650 0.15430 0.10900
C 	C 	0.03790 0.99190 0.90050 0.10500
C 	C 	0.96310 0.84460 0.93250 -0.20700
N 	N 	0.92880 0.89160 0.57640 -0.24500
N 	N 	0.28230 0.89700 0.62550 -0.17900
N 	N 	0.26280 0.68200 0.38810 -0.18000
N 	N 	0.59760 0.57040 0.43800 -0.25200
N 	N 	0.57120 0.39160 0.92360 -0.24400
N 	N 	0.21770 0.39700 0.87450 -0.18000
N 	N 	0.23720 0.18200 0.11190 -0.18100
N 	N 	0.90240 0.07040 0.06200 -0.24800
N 	N 	0.07120 0.10840 0.42360 -0.24500
N 	N 	0.71770 0.10300 0.37450 -0.17900
N 	N 	0.73720 0.31800 0.61190 -0.18000
N 	N 	0.40240 0.42960 0.56200 -0.25200
N 	N 	0.42880 0.60840 0.07640 -0.24400
N 	N 	0.78230 0.60300 0.12550 -0.18000
N 	N 	0.76280 0.81800 0.88810 -0.18100
N 	N 	0.09760 0.92960 0.93800 -0.24800
O 	O 	0.23710 0.06510 0.34570 -0.41300
O 	O 	0.26210 0.51100 0.65360 -0.41200
O 	O 	0.25590 0.58250 0.53670 -0.38700
O 	O 	0.27470 0.66950 0.91880 -0.48400
O 	O 	0.25460 0.99640 0.46490 -0.38600
O 	O 	0.27760 0.90480 0.09320 -0.47500
O 	O 	0.30680 0.76460 0.10520 -0.50100
O 	O 	0.24500 0.80780 0.91020 -0.51600
O 	O 	0.26290 0.56510 0.15430 -0.41300
O 	O 	0.23790 0.01100 0.84640 -0.40900
O 	O 	0.24410 0.08250 0.96330 -0.38400
O 	O 	0.22530 0.16950 0.58120 -0.48400
O 	O 	0.24540 0.49640 0.03510 -0.38500
O 	O 	0.22240 0.40480 0.40680 -0.47700
O 	O 	0.19320 0.26460 0.39480 -0.50200
O 	O 	0.25500 0.30780 0.58980 -0.51500
O 	O 	0.76290 0.93490 0.65430 -0.41300
O 	O 	0.73790 0.48900 0.34640 -0.41200
O 	O 	0.74410 0.41750 0.46330 -0.38700
O 	O 	0.72530 0.33050 0.08120 -0.48400
O 	O 	0.74540 0.00360 0.53510 -0.38600
O 	O 	0.72240 0.09520 0.90680 -0.47500
O 	O 	0.69320 0.23540 0.89480 -0.50100
O 	O 	0.75500 0.19220 0.08980 -0.51600
O 	O 	0.73710 0.43490 0.84570 -0.41300
O 	O 	0.76210 0.98900 0.15360 -0.40900
O 	O 	0.75590 0.91750 0.03670 -0.38400
O 	O 	0.77470 0.83050 0.41880 -0.48400
O 	O 	0.75460 0.50360 0.96490 -0.38500
O 	O 	0.77760 0.59520 0.59320 -0.47700
O 	O 	0.80680 0.73540 0.60520 -0.50200
O 	O 	0.74500 0.69220 0.41020 -0.51500
