data_crystal

_cell_length_a 8.04910
_cell_length_b 16.70530
_cell_length_c 27.17000
_cell_angle_alpha 90.00000
_cell_angle_beta  96.67500
_cell_angle_gamma 90.00000

_symmetry_space_group_name_	'P 1'
_symmetry_space_group_name_H-M	'P 1'

loop_
_symmetry_equiv_pos_as_xyz
  x,y,z

loop_
_atom_site_label
_atom_site_type_symbol
_atom_site_fract_x
_atom_site_fract_y
_atom_site_fract_z
_atom_site_charge
Tb	Tb	0.26113 0.51245 0.51830 1.90100
O 	O 	0.39550 0.07560 0.08404 -0.42800
O 	O 	0.83720 0.87760 0.99767 -0.44000
O 	O 	0.50980 0.08350 0.01367 -0.54200
O 	O 	0.11630 0.86680 0.00257 -0.50900
O 	O 	0.96660 0.49560 0.43743 -0.53500
C 	C 	0.48630 0.11240 0.05680 0.38200
C 	C 	0.96210 0.75900 0.03100 -0.17300
C 	C 	0.63730 0.24060 0.04090 0.07100
H 	H 	0.64010 0.22560 0.00810 0.00900
C 	C 	0.82040 0.71290 0.02160 0.08200
H 	H 	0.73480 0.72940 0.99780 0.01400
C 	C 	0.55440 0.21590 0.12140 0.05700
H 	H 	0.50040 0.18440 0.14280 0.02300
C 	C 	0.62510 0.28650 0.13780 -0.12200
H 	H 	0.61900 0.30160 0.17050 0.07000
C 	C 	0.08670 0.49830 0.41138 0.45500
C 	C 	0.97320 0.84110 0.00780 0.46500
C 	C 	0.04670 0.49670 0.35550 -0.19100
C 	C 	0.56180 0.19030 0.07260 -0.14400
C 	C 	0.09230 0.73250 0.06560 0.08600
H 	H 	0.19120 0.76160 0.07060 -0.01100
C 	C 	0.97290 0.49040 0.25290 0.08100
C 	C 	0.92940 0.61740 0.08390 0.06900
C 	C 	0.70780 0.33770 0.10700 0.05300
C 	C 	0.90550 0.54570 0.11590 0.02100
C 	C 	0.80380 0.64230 0.04710 -0.14400
H 	H 	0.70850 0.61100 0.03970 0.07900
C 	C 	0.92720 0.48610 0.19790 0.01900
C 	C 	0.79240 0.41220 0.12670 0.02800
C 	C 	0.82100 0.47600 0.09610 -0.09400
H 	H 	0.78480 0.47320 0.06240 0.06200
C 	C 	0.70790 0.31230 0.05750 -0.12800
H 	H 	0.75690 0.34480 0.03540 0.07600
C 	C 	0.85160 0.47640 0.28350 -0.16500
H 	H 	0.74370 0.46430 0.26940 0.08500
C 	C 	0.13390 0.50890 0.27400 -0.15400
H 	H 	0.21680 0.52000 0.25390 0.08200
C 	C 	0.07530 0.66290 0.09250 -0.14900
H 	H 	0.16120 0.64670 0.11630 0.07900
C 	C 	0.88540 0.47950 0.33520 0.11100
H 	H 	0.80140 0.47030 0.35530 -0.02500
C 	C 	0.17160 0.51080 0.32570 0.09100
H 	H 	0.28010 0.52150 0.33990 0.00300
C 	C 	0.84660 0.41820 0.17780 -0.09400
H 	H 	0.82780 0.37570 0.19850 0.06200
C 	C 	0.95920 0.54960 0.16660 -0.09200
H 	H 	0.01640 0.59460 0.17970 0.06200
O 	O 	0.23870 0.50370 0.42784 -0.20600
O 	O 	0.21900 0.46700 0.44140 -0.31600
Tb	Tb	0.73887 0.01245 0.98170 1.89200
O 	O 	0.60450 0.57560 0.41596 -0.43200
O 	O 	0.16280 0.37760 0.50233 -0.44800
O 	O 	0.49020 0.58350 0.48633 -0.54600
O 	O 	0.88370 0.36680 0.49743 -0.51100
O 	O 	0.03340 0.99560 0.06257 -0.53400
C 	C 	0.51370 0.61240 0.44320 0.38200
C 	C 	0.03790 0.25900 0.46900 -0.17900
C 	C 	0.36270 0.74060 0.45910 0.07200
H 	H 	0.35990 0.72560 0.49190 0.00700
C 	C 	0.17960 0.21290 0.47840 0.09100
H 	H 	0.26520 0.22940 0.50220 0.01000
C 	C 	0.44560 0.71590 0.37860 0.05800
H 	H 	0.49960 0.68440 0.35720 0.02200
C 	C 	0.37490 0.78650 0.36220 -0.12300
H 	H 	0.38100 0.80160 0.32950 0.07000
C 	C 	0.91330 0.99830 0.08862 0.45100
C 	C 	0.02680 0.34110 0.49220 0.47100
C 	C 	0.95330 0.99670 0.14450 -0.19400
C 	C 	0.43820 0.69030 0.42740 -0.14500
C 	C 	0.90770 0.23250 0.43440 0.09000
H 	H 	0.80880 0.26160 0.42940 -0.01200
C 	C 	0.02710 0.99040 0.24710 0.08100
C 	C 	0.07060 0.11740 0.41610 0.07300
C 	C 	0.29220 0.83770 0.39300 0.05400
C 	C 	0.09450 0.04570 0.38410 0.02000
C 	C 	0.19620 0.14230 0.45290 -0.15000
H 	H 	0.29150 0.11100 0.46030 0.08100
C 	C 	0.07280 0.98610 0.30210 0.01600
C 	C 	0.20760 0.91220 0.37330 0.02700
C 	C 	0.17900 0.97600 0.40390 -0.09400
H 	H 	0.21520 0.97320 0.43760 0.06100
C 	C 	0.29210 0.81230 0.44250 -0.12900
H 	H 	0.24310 0.84480 0.46460 0.07600
C 	C 	0.14840 0.97640 0.21650 -0.16600
H 	H 	0.25630 0.96430 0.23060 0.08500
C 	C 	0.86610 0.00890 0.22600 -0.15300
H 	H 	0.78320 0.02000 0.24610 0.08300
C 	C 	0.92470 0.16290 0.40750 -0.15300
H 	H 	0.83880 0.14670 0.38370 0.08000
C 	C 	0.11460 0.97950 0.16480 0.11200
H 	H 	0.19860 0.97030 0.14470 -0.02600
C 	C 	0.82840 0.01080 0.17430 0.09500
H 	H 	0.71990 0.02150 0.16010 0.00200
C 	C 	0.15340 0.91820 0.32220 -0.09300
H 	H 	0.17220 0.87570 0.30150 0.06100
C 	C 	0.04080 0.04960 0.33340 -0.08800
H 	H 	0.98360 0.09460 0.32030 0.06000
O 	O 	0.76130 0.00370 0.07216 -0.19200
O 	O 	0.78100 0.96700 0.05860 -0.32700
Tb	Tb	0.73887 0.48755 0.48170 1.90000
O 	O 	0.60450 0.92440 0.91596 -0.42900
O 	O 	0.16280 0.12240 0.00233 -0.44100
O 	O 	0.49020 0.91650 0.98633 -0.54300
O 	O 	0.88370 0.13320 0.99743 -0.51000
O 	O 	0.03340 0.50440 0.56257 -0.53600
C 	C 	0.51370 0.88760 0.94320 0.38100
C 	C 	0.03790 0.24100 0.96900 -0.17400
C 	C 	0.36270 0.75940 0.95910 0.07100
H 	H 	0.35990 0.77440 0.99190 0.00900
C 	C 	0.17960 0.28710 0.97840 0.08200
H 	H 	0.26520 0.27060 0.00220 0.01400
C 	C 	0.44560 0.78410 0.87860 0.05700
H 	H 	0.49960 0.81560 0.85720 0.02300
C 	C 	0.37490 0.71350 0.86220 -0.12200
H 	H 	0.38100 0.69840 0.82950 0.07000
C 	C 	0.91330 0.50170 0.58862 0.45500
C 	C 	0.02680 0.15890 0.99220 0.46500
C 	C 	0.95330 0.50330 0.64450 -0.19100
C 	C 	0.43820 0.80970 0.92740 -0.14400
C 	C 	0.90770 0.26750 0.93440 0.08600
H 	H 	0.80880 0.23840 0.92940 -0.01100
C 	C 	0.02710 0.50960 0.74710 0.08100
C 	C 	0.07060 0.38260 0.91610 0.06900
C 	C 	0.29220 0.66230 0.89300 0.05300
C 	C 	0.09450 0.45430 0.88410 0.02100
C 	C 	0.19620 0.35770 0.95290 -0.14400
H 	H 	0.29150 0.38900 0.96030 0.07900
C 	C 	0.07280 0.51390 0.80210 0.01900
C 	C 	0.20760 0.58780 0.87330 0.02800
C 	C 	0.17900 0.52400 0.90390 -0.09400
H 	H 	0.21520 0.52680 0.93760 0.06200
C 	C 	0.29210 0.68770 0.94250 -0.12800
H 	H 	0.24310 0.65520 0.96460 0.07600
C 	C 	0.14840 0.52360 0.71650 -0.16500
H 	H 	0.25630 0.53570 0.73060 0.08500
C 	C 	0.86610 0.49110 0.72600 -0.15400
H 	H 	0.78320 0.48000 0.74610 0.08200
C 	C 	0.92470 0.33710 0.90750 -0.14900
H 	H 	0.83880 0.35330 0.88370 0.07900
C 	C 	0.11460 0.52050 0.66480 0.11100
H 	H 	0.19860 0.52970 0.64470 -0.02500
C 	C 	0.82840 0.48920 0.67430 0.09100
H 	H 	0.71990 0.47850 0.66010 0.00300
C 	C 	0.15340 0.58180 0.82220 -0.09400
H 	H 	0.17220 0.62430 0.80150 0.06200
C 	C 	0.04080 0.45040 0.83340 -0.09200
H 	H 	0.98360 0.40540 0.82030 0.06200
O 	O 	0.76130 0.49630 0.57216 -0.20600
O 	O 	0.78100 0.53300 0.55860 -0.31600
Tb	Tb	0.26113 0.98755 0.01830 1.89200
O 	O 	0.39550 0.42440 0.58404 -0.43200
O 	O 	0.83720 0.62240 0.49767 -0.44800
O 	O 	0.50980 0.41650 0.51367 -0.54600
O 	O 	0.11630 0.63320 0.50257 -0.51100
O 	O 	0.96660 0.00440 0.93743 -0.53400
C 	C 	0.48630 0.38760 0.55680 0.38200
C 	C 	0.96210 0.74100 0.53100 -0.17900
C 	C 	0.63730 0.25940 0.54090 0.07200
H 	H 	0.64010 0.27440 0.50810 0.00700
C 	C 	0.82040 0.78710 0.52160 0.09100
H 	H 	0.73480 0.77060 0.49780 0.01000
C 	C 	0.55440 0.28410 0.62140 0.05800
H 	H 	0.50040 0.31560 0.64280 0.02200
C 	C 	0.62510 0.21350 0.63780 -0.12300
H 	H 	0.61900 0.19840 0.67050 0.07000
C 	C 	0.08670 0.00170 0.91138 0.45100
C 	C 	0.97320 0.65890 0.50780 0.47100
C 	C 	0.04670 0.00330 0.85550 -0.19400
C 	C 	0.56180 0.30970 0.57260 -0.14500
C 	C 	0.09230 0.76750 0.56560 0.09000
H 	H 	0.19120 0.73840 0.57060 -0.01200
C 	C 	0.97290 0.00960 0.75290 0.08100
C 	C 	0.92940 0.88260 0.58390 0.07300
C 	C 	0.70780 0.16230 0.60700 0.05400
C 	C 	0.90550 0.95430 0.61590 0.02000
C 	C 	0.80380 0.85770 0.54710 -0.15000
H 	H 	0.70850 0.88900 0.53970 0.08100
C 	C 	0.92720 0.01390 0.69790 0.01600
C 	C 	0.79240 0.08780 0.62670 0.02700
C 	C 	0.82100 0.02400 0.59610 -0.09400
H 	H 	0.78480 0.02680 0.56240 0.06100
C 	C 	0.70790 0.18770 0.55750 -0.12900
H 	H 	0.75690 0.15520 0.53540 0.07600
C 	C 	0.85160 0.02360 0.78350 -0.16600
H 	H 	0.74370 0.03570 0.76940 0.08500
C 	C 	0.13390 0.99110 0.77400 -0.15300
H 	H 	0.21680 0.98000 0.75390 0.08300
C 	C 	0.07530 0.83710 0.59250 -0.15300
H 	H 	0.16120 0.85330 0.61630 0.08000
C 	C 	0.88540 0.02050 0.83520 0.11200
H 	H 	0.80140 0.02970 0.85530 -0.02600
C 	C 	0.17160 0.98920 0.82570 0.09500
H 	H 	0.28010 0.97850 0.83990 0.00200
C 	C 	0.84660 0.08180 0.67780 -0.09300
H 	H 	0.82780 0.12430 0.69850 0.06100
C 	C 	0.95920 0.95040 0.66660 -0.08800
H 	H 	0.01640 0.90540 0.67970 0.06000
O 	O 	0.23870 0.99630 0.92784 -0.19200
O 	O 	0.21900 0.03300 0.94140 -0.32700
