data_crystal

_cell_length_a 13.51040
_cell_length_b 14.11070
_cell_length_c 8.80000
_cell_angle_alpha 90.00000
_cell_angle_beta  114.61700
_cell_angle_gamma 90.00000

_symmetry_space_group_name_	'P 1'
_symmetry_space_group_name_H-M	'P 1'

loop_
_symmetry_equiv_pos_as_xyz
  x,y,z

loop_
_atom_site_label
_atom_site_type_symbol
_atom_site_fract_x
_atom_site_fract_y
_atom_site_fract_z
_atom_site_charge
O 	O 	0.09186 0.57597 0.11542 -0.62400
O 	O 	0.10515 0.52447 0.88540 -0.59800
O 	O 	0.19328 0.62481 0.73495 -0.47600
H 	H 	0.15100 0.58450 0.73980 0.26700
C 	C 	0.12247 0.58460 0.00145 0.51400
C 	C 	0.18796 0.66990 0.99866 -0.25100
C 	C 	0.21846 0.73508 0.12985 -0.04700
H 	H 	0.19710 0.72530 0.21640 0.02100
C 	C 	0.21985 0.68569 0.86720 0.25100
O 	O 	0.59186 0.07597 0.11542 -0.54700
O 	O 	0.60515 0.02447 0.88540 -0.52400
O 	O 	0.69328 0.12481 0.73495 -0.44100
H 	H 	0.65100 0.08450 0.73980 0.28400
C 	C 	0.62247 0.08460 0.00145 0.50900
C 	C 	0.68796 0.16990 0.99866 -0.20700
C 	C 	0.71846 0.23508 0.12985 -0.04500
H 	H 	0.69710 0.22530 0.21640 0.05300
C 	C 	0.71985 0.18569 0.86720 0.26900
O 	O 	0.90814 0.57597 0.38458 -0.46800
O 	O 	0.89485 0.52447 0.61460 -0.45400
O 	O 	0.80672 0.62481 0.76505 -0.44000
H 	H 	0.84900 0.58450 0.76020 0.30200
C 	C 	0.87753 0.58460 0.49855 0.48600
C 	C 	0.81204 0.66990 0.50134 -0.16000
C 	C 	0.78154 0.73508 0.37015 -0.08000
H 	H 	0.80290 0.72530 0.28360 0.07800
C 	C 	0.78015 0.68569 0.63280 0.24900
O 	O 	0.40814 0.07597 0.38458 -0.55500
O 	O 	0.39485 0.02447 0.61460 -0.53200
O 	O 	0.30672 0.12481 0.76505 -0.47200
H 	H 	0.34900 0.08450 0.76020 0.28400
C 	C 	0.37753 0.08460 0.49855 0.48400
C 	C 	0.31204 0.16990 0.50134 -0.19600
C 	C 	0.28154 0.23508 0.37015 -0.09100
H 	H 	0.30290 0.22530 0.28360 0.04700
C 	C 	0.28015 0.18569 0.63280 0.22600
O 	O 	0.90814 0.42403 0.88458 -0.46500
O 	O 	0.89485 0.47553 0.11460 -0.43900
O 	O 	0.80672 0.37519 0.26505 -0.43000
H 	H 	0.84900 0.41550 0.26020 0.30000
C 	C 	0.87753 0.41540 0.99855 0.45700
C 	C 	0.81204 0.33010 0.00134 -0.12800
C 	C 	0.78154 0.26492 0.87015 -0.11000
H 	H 	0.80290 0.27470 0.78360 0.08600
C 	C 	0.78015 0.31431 0.13280 0.23200
O 	O 	0.40814 0.92403 0.88458 -0.55000
O 	O 	0.39485 0.97553 0.11460 -0.51500
O 	O 	0.30672 0.87519 0.26505 -0.46200
H 	H 	0.34900 0.91550 0.26020 0.28000
C 	C 	0.37753 0.91540 0.99855 0.44700
C 	C 	0.31204 0.83010 0.00134 -0.15200
C 	C 	0.28154 0.76492 0.87015 -0.13300
H 	H 	0.30290 0.77470 0.78360 0.05900
C 	C 	0.28015 0.81431 0.13280 0.20100
O 	O 	0.09186 0.42403 0.61542 -0.61800
O 	O 	0.10515 0.47553 0.38540 -0.58500
O 	O 	0.19328 0.37519 0.23495 -0.46600
H 	H 	0.15100 0.41550 0.23980 0.26400
C 	C 	0.12247 0.41540 0.50145 0.48400
C 	C 	0.18796 0.33010 0.49866 -0.21300
C 	C 	0.21846 0.26492 0.62985 -0.08500
H 	H 	0.19710 0.27470 0.71640 0.03200
C 	C 	0.21985 0.31431 0.36720 0.22700
O 	O 	0.59186 0.92403 0.61542 -0.54600
O 	O 	0.60515 0.97553 0.38540 -0.51600
O 	O 	0.69328 0.87519 0.23495 -0.43200
H 	H 	0.65100 0.91550 0.23980 0.28300
C 	C 	0.62247 0.91540 0.50145 0.49300
C 	C 	0.68796 0.83010 0.49866 -0.18100
C 	C 	0.71846 0.76492 0.62985 -0.07100
H 	H 	0.69710 0.77470 0.71640 0.05900
C 	C 	0.71985 0.81431 0.36720 0.25300
Mg	Mg	0.00000 0.57867 0.25000 1.44600
Mg	Mg	0.50000 0.07867 0.25000 1.46600
Mg	Mg	0.00000 0.42133 0.75000 1.44600
Mg	Mg	0.50000 0.92133 0.75000 1.46600
