data_crystal

_cell_length_a 9.40980
_cell_length_b 9.40980
_cell_length_c 11.74200
_cell_angle_alpha 90.31820
_cell_angle_beta  90.31820
_cell_angle_gamma 110.04100

_symmetry_space_group_name_	'P 1'
_symmetry_space_group_name_H-M	'P 1'

loop_
_symmetry_equiv_pos_as_xyz
  x,y,z

loop_
_atom_site_label
_atom_site_type_symbol
_atom_site_fract_x
_atom_site_fract_y
_atom_site_fract_z
_atom_site_charge
Co	Co	0.11278 0.88722 0.50000 1.12600
Co	Co	0.85850 0.86870 0.68848 1.11200
Co	Co	0.88722 0.11278 -0.00000 1.08700
Co	Co	0.86870 0.85850 0.18848 1.10500
H 	H 	0.93100 0.43480 0.23460 0.02400
H 	H 	0.87770 0.33090 0.61780 0.05300
H 	H 	0.43480 0.93100 0.73460 0.03100
H 	H 	0.33090 0.87770 0.11780 0.08800
C 	C 	0.86160 0.59660 0.59040 0.34300
C 	C 	0.90830 0.66570 0.32980 0.16100
C 	C 	0.91820 0.15780 0.26080 0.36600
C 	C 	0.93440 0.11000 0.52010 0.19900
C 	C 	0.89100 0.49320 0.50400 -0.10800
C 	C 	0.90780 0.52380 0.38730 -0.04600
C 	C 	0.92200 0.41420 0.31210 -0.00700
C 	C 	0.92300 0.27500 0.35040 -0.08900
C 	C 	0.91300 0.24540 0.46830 -0.01300
C 	C 	0.89190 0.35330 0.54080 -0.01300
C 	C 	0.59660 0.86160 0.09040 0.34600
C 	C 	0.66570 0.90830 0.82980 0.15400
C 	C 	0.15780 0.91820 0.76080 0.38400
C 	C 	0.11000 0.93440 0.02010 0.02400
C 	C 	0.49320 0.89100 0.00400 -0.14300
C 	C 	0.52380 0.90780 0.88730 0.01700
C 	C 	0.41420 0.92200 0.81210 0.00500
C 	C 	0.27500 0.92300 0.85040 -0.12900
C 	C 	0.24540 0.91300 0.96830 0.16400
C 	C 	0.35330 0.89190 0.04080 -0.14300
O 	O 	0.90170 0.74070 0.56510 -0.61300
O 	O 	0.79950 0.54790 0.67760 -0.30900
O 	O 	0.00570 0.79370 0.34580 -0.35700
O 	O 	0.80530 0.64830 0.25310 -0.37800
O 	O 	0.95990 0.20290 0.16290 -0.50100
O 	O 	0.86420 0.02180 0.29140 -0.40500
O 	O 	0.04380 0.07100 0.48560 -0.22900
O 	O 	0.84700 0.04420 0.59890 -0.34400
O 	O 	0.74070 0.90170 0.06510 -0.63400
O 	O 	0.54790 0.79950 0.17760 -0.32500
O 	O 	0.79370 0.00570 0.84580 -0.32800
O 	O 	0.64830 0.80530 0.75310 -0.36000
O 	O 	0.20290 0.95990 0.66290 -0.48400
O 	O 	0.02180 0.86420 0.79140 -0.39400
O 	O 	0.07100 0.04380 0.98560 -0.12300
O 	O 	0.04420 0.84700 0.09890 -0.31400
