data_crystal

_audit_creation_method 'AiiDA-DDEC plugin'

_cell_length_a        22.38629
_cell_length_b        22.49681
_cell_length_c        13.03763

_cell_angle_alpha     89.69313
_cell_angle_beta     89.81117
_cell_angle_gamma     120.04452

_symmetry_space_group_name_Hall 'P 1'
_symmetry_space_group_name_H-M  'P 1'

loop_
_symmetry_equiv_pos_as_xyz
 'x,y,z'

loop_
_atom_site_label
_atom_site_type_symbol
_atom_site_fract_x
_atom_site_fract_y
_atom_site_fract_z
_atom_site_charge
Cu         Cu      0.38058   0.38151   0.24352   0.92088
Cu         Cu      0.00001   0.37836   0.74591   0.92039
Cu         Cu      0.62137  -0.00038   0.25365   0.92237
Cu         Cu      0.62262   0.62168   0.75550   0.92040
Cu         Cu      0.00014   0.61878   0.24970   0.92249
Cu         Cu      0.37592   0.00092   0.74213   0.92076
Cu         Cu      0.27041   0.27355   0.24641   0.91592
Cu         Cu      0.00128   0.27024   0.74655   0.91471
Cu         Cu      0.73137   0.00097   0.25094   0.91522
Cu         Cu      0.73257   0.72998   0.75567   0.91562
Cu         Cu      0.99861   0.72695   0.24921   0.90889
Cu         Cu      0.26607  -0.00017   0.74098   0.91480
H          H       0.17787   0.51085   0.89533   0.12687
H          H       0.66700   0.17656   0.40640   0.12807
H          H       0.49356   0.67220   0.90282   0.12701
H          H       0.82616   0.49045   0.41424   0.12831
H          H       0.33117   0.82746   0.89828   0.12688
H          H       0.51143   0.33718   0.40762   0.12814
H          H       0.33775   0.51153   0.40816   0.12796
H          H       0.82131   0.32827   0.89646   0.12683
H          H       0.49563   0.82614   0.41202   0.12701
H          H       0.66458   0.48936   0.90956   0.12645
H          H       0.17906   0.66851   0.40148   0.12658
H          H       0.50315   0.17374   0.89945   0.12787
H          H       0.82184   0.48710   0.09720   0.12796
H          H       0.33006   0.82372   0.59906   0.12718
H          H       0.50296   0.32636   0.09770   0.12921
H          H       0.17795   0.50750   0.59882   0.12737
H          H       0.66585   0.17216   0.09269   0.12793
H          H       0.49678   0.67046   0.60480   0.12654
H          H       0.67434   0.49345   0.61478   0.12760
H          H       0.17645   0.67085   0.09461   0.12734
H          H       0.50394   0.17661   0.59882   0.12665
H          H       0.33136   0.51055   0.09392   0.12740
H          H       0.82119   0.32588   0.60685   0.12650
H          H       0.49386   0.82522   0.10071   0.12748
H          H       0.15944   0.31963   0.99430   0.14144
H          H       0.84229   0.15818   0.49332   0.14049
H          H       0.68574   0.84106   0.00669   0.14182
H          H       0.84641   0.68309   0.50552   0.14100
H          H       0.15379   0.84054   0.99246   0.14106
H          H       0.31596   0.16117   0.48815   0.14108
H          H       0.16153   0.31853   0.49642   0.14124
H          H       0.84165   0.15689   0.99718   0.14061
H          H       0.68824   0.84413   0.50404   0.14109
H          H       0.83826   0.67921   0.00846   0.14101
H          H       0.15680   0.83973   0.49368   0.14216
H          H       0.31114   0.15877   0.99078   0.14087
H          H       0.39800   0.60629  -0.00142   0.11820
H          H       0.79510   0.39430   0.51618   0.11771
H          H       0.39809   0.79753  -0.00067   0.11894
H          H       0.60606   0.40000   0.51277   0.11838
H          H       0.20587   0.60616   0.99392   0.11919
H          H       0.60031   0.20608   0.50201   0.11883
H          H       0.20827   0.60343   0.49857   0.11874
H          H       0.59910   0.20145   0.99389   0.11904
H          H       0.40123   0.60556   0.51072   0.11766
H          H       0.79132   0.39278   0.99505   0.11829
H          H       0.39928   0.79582   0.50809   0.11834
H          H       0.59928   0.39264   0.00559   0.11866
C          C       0.19834   0.48418   0.93990  -0.12486
C          C       0.71447   0.19629   0.44986  -0.12488
C          C       0.52035   0.71859   0.94818  -0.12680
C          C       0.80649   0.51779   0.45864  -0.12578
C          C       0.28318   0.80560   0.94176  -0.12598
C          C       0.48301   0.28859   0.44870  -0.12550
C          C       0.28931   0.48394   0.45031  -0.12648
C          C       0.80073   0.28087   0.94067  -0.12636
C          C       0.52261   0.80550   0.45536  -0.12507
C          C       0.71231   0.51542   0.95265  -0.12709
C          C       0.19860   0.71555   0.44524  -0.12488
C          C       0.47635   0.19439   0.94319  -0.12662
C          C       0.80050   0.51419   0.05574  -0.12743
C          C       0.28342   0.80269   0.55344  -0.12598
C          C       0.47645   0.28012   0.05197  -0.12766
C          C       0.19973   0.48182   0.55502  -0.12546
C          C       0.71350   0.19337   0.04848  -0.12626
C          C       0.52316   0.71809   0.56096  -0.12499
C          C       0.72124   0.51950   0.56886  -0.12626
C          C       0.19635   0.71779   0.04947  -0.12688
C          C       0.47884   0.19851   0.55371  -0.12612
C          C       0.28448   0.48410   0.04903  -0.12508
C          C       0.80123   0.28031   0.55963  -0.12681
C          C       0.52047   0.80443   0.05681  -0.12388
C          C       0.09897   0.37693   0.87507   0.58438
C          C       0.72269   0.09818   0.38066   0.58568
C          C       0.62732   0.72445   0.88444   0.58412
C          C       0.90460   0.62391   0.38606   0.58519
C          C       0.27381   0.90395   0.87525   0.58430
C          C       0.37741   0.28136   0.37515   0.58560
C          C       0.28097   0.37765   0.38028   0.58362
C          C       0.90272   0.27563   0.87846   0.58545
C          C       0.62936   0.90486   0.38725   0.58723
C          C       0.72069   0.62357   0.88969   0.58458
C          C       0.09801   0.72140   0.37824   0.58469
C          C       0.36949   0.09771   0.87247   0.58337
C          C       0.90018   0.62136   0.12181   0.58403
C          C       0.27445   0.90196   0.61393   0.58569
C          C       0.36963   0.27572   0.11218   0.58458
C          C       0.09838   0.37379   0.61487   0.58227
C          C       0.72287   0.09567   0.11722   0.58481
C          C       0.63091   0.72488   0.62211   0.58229
C          C       0.72859   0.62699   0.62893   0.58561
C          C       0.09495   0.72252   0.11424   0.58709
C          C       0.36961   0.09685   0.60882   0.58593
C          C       0.27680   0.37719   0.11519   0.58523
C          C       0.90292   0.27405   0.61711   0.58561
C          C       0.62773   0.90230   0.12364   0.58381
C          C       0.16269   0.41214   0.93873  -0.02560
C          C       0.75133   0.16107   0.44511  -0.02749
C          C       0.59271   0.75348   0.94873  -0.02571
C          C       0.84255   0.58979   0.45454  -0.02676
C          C       0.24546   0.84008   0.93952  -0.02601
C          C       0.41078   0.25221   0.44185  -0.02756
C          C       0.25267   0.41198   0.44635  -0.02622
C          C       0.83776   0.24572   0.94090  -0.02682
C          C       0.59497   0.84138   0.45238  -0.02760
C          C       0.74859   0.58745   0.95286  -0.02585
C          C       0.16168   0.75077   0.44226  -0.02463
C          C       0.40396   0.15991   0.93922  -0.02622
C          C       0.83602   0.58621   0.05903  -0.02490
C          C       0.24660   0.83805   0.55164  -0.02546
C          C       0.40413   0.24570   0.04992  -0.02421
C          C       0.16369   0.40985   0.55377  -0.02552
C          C       0.75073   0.15847   0.05082  -0.02711
C          C       0.59555   0.75411   0.55999  -0.02507
C          C       0.75753   0.59152   0.56675  -0.02689
C          C       0.15886   0.75241   0.04943  -0.02672
C          C       0.40657   0.16251   0.54921  -0.02386
C          C       0.24858   0.41211   0.04992  -0.02600
C          C       0.83837   0.24539   0.55547  -0.02577
C          C       0.59285   0.83918   0.05940  -0.02738
C          C       0.29752   0.59731   0.99605   0.07693
C          C       0.70190   0.29556   0.50976   0.07598
C          C       0.40673   0.70615  -0.00031   0.07423
C          C       0.70516   0.40570   0.51480   0.07622
C          C       0.29761   0.70608   0.99665   0.07677
C          C       0.59445   0.29885   0.50830   0.07636
C          C       0.30055   0.59588   0.50531   0.07490
C          C       0.69949   0.29286   0.99493   0.07638
C          C       0.40910   0.70513   0.50931   0.07657
C          C       0.69971   0.40155   0.00078   0.07633
C          C       0.29927   0.70389   0.50352   0.07435
C          C       0.59024   0.29266  -0.00043   0.07592
C          C       0.25975   0.52123   0.99481   0.06058
C          C       0.73916   0.25670   0.50669   0.06242
C          C       0.48317   0.74356   0.00158   0.06239
C          C       0.74499   0.48168   0.51497   0.06239
C          C       0.25891   0.74365   0.99588   0.06221
C          C       0.51808   0.26201   0.50403   0.06220
C          C       0.26308   0.51987   0.50390   0.06183
C          C       0.73804   0.25518   0.99398   0.06202
C          C       0.48556   0.74336   0.50930   0.06210
C          C       0.73789   0.47770   0.00321   0.06370
C          C       0.26013   0.74100   0.50058   0.06141
C          C       0.51371   0.25510  -0.00113   0.06244
C          C       0.18736   0.37545   0.99434  -0.09554
C          C       0.81373   0.18545   0.49762  -0.09403
C          C       0.62964   0.81406   0.00506  -0.09610
C          C       0.81844   0.62728   0.50890  -0.09432
C          C       0.18291   0.81374   0.99358  -0.09410
C          C       0.37194   0.18910   0.49291  -0.09578
C          C       0.18973   0.37431   0.49890  -0.09477
C          C       0.81296   0.18413   0.99622  -0.09347
C          C       0.63215   0.81617   0.50541  -0.09523
C          C       0.81048   0.62340   0.00697  -0.09486
C          C       0.18541   0.81243   0.49565  -0.09761
C          C       0.36720   0.18526   0.99321  -0.09593
C          C       0.36987   0.63411  -0.00177  -0.18418
C          C       0.73902   0.36753   0.51412  -0.18380
C          C       0.37002   0.74163  -0.00129  -0.18326
C          C       0.63278   0.37078   0.51241  -0.18364
C          C       0.26200   0.63397   0.99543  -0.18529
C          C       0.62963   0.26184   0.50651  -0.18521
C          C       0.26436   0.63185   0.50218  -0.18332
C          C       0.62706   0.25731   0.99603  -0.18484
C          C       0.37282   0.63310   0.50895  -0.18354
C          C       0.73518   0.36492   0.99672  -0.18444
C          C       0.37170   0.73994   0.50717  -0.18300
C          C       0.62729   0.36473   0.00243  -0.18541
O          O       0.07524   0.31385   0.85195  -0.53700
O          O       0.76309   0.07610   0.35363  -0.53803
O          O       0.69123   0.76264   0.86162  -0.53285
O          O       0.92822   0.68690   0.36102  -0.53162
O          O       0.23287   0.92483   0.84582  -0.53331
O          O       0.31410   0.24248   0.35089  -0.53713
O          O       0.24035   0.31520   0.35463  -0.53647
O          O       0.92646   0.23653   0.85269  -0.53431
O          O       0.69240   0.92876   0.36058  -0.53303
O          O       0.76214   0.68565   0.86160  -0.53646
O          O       0.07537   0.76108   0.35015  -0.53399
O          O       0.30581   0.07251   0.84979  -0.53247
O          O       0.92161   0.68334   0.14924  -0.53177
O          O       0.23548   0.92692   0.63420  -0.53242
O          O       0.30667   0.23690   0.13959  -0.52754
O          O       0.07542   0.31100   0.64042  -0.52938
O          O       0.76253   0.07195   0.14024  -0.53219
O          O       0.69320   0.76495   0.65000  -0.53001
O          O       0.76717   0.69064   0.64965  -0.53070
O          O       0.06890   0.76011   0.13663  -0.53061
O          O       0.30675   0.07448   0.63541  -0.53117
O          O       0.23699   0.31421   0.14020  -0.53187
O          O       0.92775   0.23546   0.64009  -0.52791
O          O       0.69067   0.92539   0.14907  -0.52922
O          O       0.07387   0.41456   0.84657  -0.54203
O          O       0.65909   0.07215   0.35599  -0.54019
O          O       0.58812   0.66250   0.85475  -0.54544
O          O       0.92798   0.58541   0.35507  -0.54561
O          O       0.33806   0.93189   0.85227  -0.54476
O          O       0.41651   0.34362   0.34515  -0.54269
O          O       0.34406   0.41497   0.35193  -0.54166
O          O       0.92861   0.33907   0.85352  -0.54632
O          O       0.59063   0.92908   0.36029  -0.54791
O          O       0.65686   0.58768   0.86567  -0.54007
O          O       0.07206   0.65799   0.35455  -0.54364
O          O       0.40897   0.07542   0.84067  -0.54812
O          O       0.92773   0.58508   0.14535  -0.54387
O          O       0.33666   0.92581   0.64463  -0.54465
O          O       0.40803   0.33912   0.13560  -0.55084
O          O       0.07166   0.41057   0.63948  -0.54348
O          O       0.66056   0.07167   0.14858  -0.54724
O          O       0.59407   0.66091   0.64497  -0.54739
O          O       0.66597   0.58858   0.65898  -0.54781
O          O       0.07241   0.66056   0.14492  -0.54908
O          O       0.40595   0.06913   0.63112  -0.54750
O          O       0.33960   0.41507   0.14341  -0.54640
O          O       0.92731   0.33663   0.64458  -0.54963
O          O       0.58979   0.92753   0.15014  -0.54924

