data_crystal

_cell_length_a 9.66500
_cell_length_b 10.25690
_cell_length_c 10.34550
_cell_angle_alpha 119.71700
_cell_angle_beta  94.51810
_cell_angle_gamma 90.00000

_symmetry_space_group_name_	'P 1'
_symmetry_space_group_name_H-M	'P 1'

loop_
_symmetry_equiv_pos_as_xyz
  x,y,z

loop_
_atom_site_label
_atom_site_type_symbol
_atom_site_fract_x
_atom_site_fract_y
_atom_site_fract_z
_atom_site_charge
Ca	Ca	0.75000 0.07825 -0.00000 1.44900
Ca	Ca	0.25000 0.92175 -0.00000 1.43900
H 	H 	0.74130 0.04510 0.32420 0.25800
H 	H 	0.18890 0.96830 0.36520 0.03400
H 	H 	0.75870 0.72090 0.67580 0.27900
H 	H 	0.31110 0.60310 0.63480 0.08600
H 	H 	0.25870 0.95490 0.67580 0.29000
H 	H 	0.81110 0.03170 0.63480 0.07800
H 	H 	0.24130 0.27910 0.32420 0.26900
H 	H 	0.68890 0.39690 0.36520 0.02600
C 	C 	0.97080 0.00447 0.22034 0.48900
C 	C 	0.98420 0.00341 0.36602 -0.17800
C 	C 	0.86940 0.02376 0.44852 0.22700
C 	C 	0.11270 0.98075 0.41930 -0.11900
C 	C 	0.52920 0.78413 0.77966 0.43500
C 	C 	0.51580 0.63739 0.63398 -0.15100
C 	C 	0.63060 0.57524 0.55148 0.22100
C 	C 	0.38730 0.56145 0.58070 -0.09800
C 	C 	0.02920 0.99553 0.77966 0.40700
C 	C 	0.01580 0.99659 0.63398 -0.18600
C 	C 	0.13060 0.97624 0.55148 0.24400
C 	C 	0.88730 0.01925 0.58070 -0.04700
C 	C 	0.47080 0.21587 0.22034 0.46500
C 	C 	0.48420 0.36261 0.36602 -0.21100
C 	C 	0.36940 0.42476 0.44852 0.25000
C 	C 	0.61270 0.43855 0.41930 -0.06800
O 	O 	0.84900 0.01249 0.17058 -0.59600
O 	O 	0.74070 0.04984 0.40568 -0.42300
O 	O 	0.07584 0.99378 0.15616 -0.68200
O 	O 	0.65100 0.84191 0.82942 -0.42800
O 	O 	0.75930 0.64416 0.59432 -0.45400
O 	O 	0.42416 0.83762 0.84384 -0.43200
O 	O 	0.15100 0.98751 0.82942 -0.40400
O 	O 	0.25930 0.95016 0.59432 -0.46200
O 	O 	0.92416 0.00622 0.84384 -0.38000
O 	O 	0.34900 0.15809 0.17058 -0.56900
O 	O 	0.24070 0.35584 0.40568 -0.43000
O 	O 	0.57584 0.16238 0.15616 -0.62800
