data_crystal

_cell_length_a 8.33280
_cell_length_b 8.67940
_cell_length_c 9.93930
_cell_angle_alpha 70.52000
_cell_angle_beta  84.45900
_cell_angle_gamma 73.72200

_symmetry_space_group_name_	'P 1'
_symmetry_space_group_name_H-M	'P 1'

loop_
_symmetry_equiv_pos_as_xyz
  x,y,z

loop_
_atom_site_label
_atom_site_type_symbol
_atom_site_fract_x
_atom_site_fract_y
_atom_site_fract_z
_atom_site_charge
Ca	Ca	0.32648 0.36337 0.04249 1.50900
Ca	Ca	0.67352 0.63663 0.95751 1.50900
H 	H 	0.22390 0.44260 0.35420 0.05100
H 	H 	0.67580 0.55760 0.33320 0.27400
H 	H 	0.65450 0.97660 0.92070 0.32000
H 	H 	0.95510 0.26490 0.02510 0.07700
H 	H 	0.77610 0.55740 0.64580 0.05100
H 	H 	0.32420 0.44240 0.66680 0.27400
H 	H 	0.34550 0.02340 0.07930 0.32000
H 	H 	0.04490 0.73510 0.97490 0.07700
C 	C 	0.95110 0.47650 0.22410 0.45400
C 	C 	0.97360 0.49170 0.36580 -0.18300
C 	C 	0.13320 0.46520 0.41350 -0.07900
C 	C 	0.83770 0.52870 0.45460 0.23900
C 	C 	0.66920 0.23210 0.95740 0.39200
C 	C 	0.84150 0.11310 0.97610 -0.15800
C 	C 	0.97330 0.15860 0.01490 -0.12400
C 	C 	0.86920 0.95270 0.96170 0.26600
C 	C 	0.04890 0.52350 0.77590 0.45400
C 	C 	0.02640 0.50830 0.63420 -0.18300
C 	C 	0.86680 0.53480 0.58650 -0.07900
C 	C 	0.16230 0.47130 0.54540 0.23900
C 	C 	0.33080 0.76790 0.04260 0.39200
C 	C 	0.15850 0.88690 0.02390 -0.15800
C 	C 	0.02670 0.84140 0.98510 -0.12400
C 	C 	0.13080 0.04730 0.03830 0.26600
O 	O 	0.07640 0.41890 0.15960 -0.49100
O 	O 	0.80300 0.52390 0.17720 -0.48500
O 	O 	0.54970 0.17910 0.93850 -0.44700
O 	O 	0.64590 0.37720 0.96540 -0.56500
O 	O 	0.67710 0.56080 0.41470 -0.43000
O 	O 	0.74250 0.90320 0.92480 -0.62000
O 	O 	0.92360 0.58110 0.84040 -0.49100
O 	O 	0.19700 0.47610 0.82280 -0.48500
O 	O 	0.45030 0.82090 0.06150 -0.44700
O 	O 	0.35410 0.62280 0.03460 -0.56500
O 	O 	0.32290 0.43920 0.58530 -0.43000
O 	O 	0.25750 0.09680 0.07520 -0.62000
