data_crystal

_cell_length_a 17.81100
_cell_length_b 19.15500
_cell_length_c 14.68300
_cell_angle_alpha 90.00000
_cell_angle_beta  90.00000
_cell_angle_gamma 90.00000

_symmetry_space_group_name_	'P 1'
_symmetry_space_group_name_H-M	'P 1'

loop_
_symmetry_equiv_pos_as_xyz
  x,y,z

loop_
_atom_site_label
_atom_site_type_symbol
_atom_site_fract_x
_atom_site_fract_y
_atom_site_fract_z
_atom_site_charge
Cd	Cd	0.25713 0.96963 0.62898 1.08700
C 	C 	0.43460 0.01880 0.62000 -0.01300
H 	H 	0.42310 0.06590 0.61300 -0.02500
C 	C 	0.50520 0.99200 0.62470 -0.01400
H 	H 	0.55020 0.01670 0.62280 0.01300
C 	C 	0.42360 0.90770 0.63270 0.06800
H 	H 	0.40320 0.86310 0.63620 -0.04000
C 	C 	0.55850 0.86810 0.63260 -0.13000
H 	H 	0.55390 0.83820 0.68560 0.07100
H 	H 	0.60670 0.89160 0.63560 0.03500
C 	C 	0.55440 0.82470 0.54710 0.09000
C 	C 	0.58290 0.84920 0.46580 -0.27400
H 	H 	0.60860 0.89140 0.46580 0.10300
C 	C 	0.57510 0.81350 0.38440 0.26300
C 	C 	0.60540 0.84350 0.29440 -0.68600
H 	H 	0.56920 0.87520 0.26900 0.20700
H 	H 	0.61450 0.80620 0.25220 0.19800
H 	H 	0.65150 0.86800 0.30580 0.18100
C 	C 	0.53600 0.74900 0.38590 -0.26400
H 	H 	0.52890 0.72440 0.33200 0.10400
C 	C 	0.50830 0.72220 0.46730 0.08200
C 	C 	0.51730 0.75840 0.54690 0.00800
C 	C 	0.54240 0.69220 0.68040 0.13200
H 	H 	0.57700 0.72330 0.71130 -0.01900
H 	H 	0.57100 0.66220 0.64010 -0.03300
H 	H 	0.46460 0.61830 0.71830 0.09200
C 	C 	0.47280 0.64920 0.46500 -0.12800
H 	H 	0.45780 0.63590 0.52610 0.06500
H 	H 	0.42820 0.65010 0.42710 0.04400
C 	C 	0.60200 0.59920 0.43300 0.06600
H 	H 	0.62870 0.63470 0.46150 -0.05600
C 	C 	0.57520 0.50730 0.36020 -0.00700
H 	H 	0.57980 0.46640 0.32660 -0.02200
C 	C 	0.51020 0.53710 0.38390 -0.01700
H 	H 	0.46240 0.51990 0.37180 0.01100
N 	N 	0.38300 0.96590 0.62700 -0.30600
N 	N 	0.49680 0.92110 0.63290 -0.10600
N 	N 	0.52660 0.59690 0.42860 -0.11100
N 	N 	0.63350 0.54560 0.39240 -0.31000
O 	O 	0.48860 0.73240 0.62840 -0.22200
Cd	Cd	0.24287 0.53037 0.12898 1.08600
C 	C 	0.06540 0.48120 0.12000 -0.00100
H 	H 	0.07690 0.43410 0.11300 -0.02900
C 	C 	0.99480 0.50800 0.12470 -0.03300
H 	H 	0.94980 0.48330 0.12280 0.01800
C 	C 	0.07640 0.59230 0.13270 0.06800
H 	H 	0.09680 0.63690 0.13620 -0.03900
C 	C 	0.94150 0.63190 0.13260 -0.13800
H 	H 	0.94610 0.66180 0.18560 0.07200
H 	H 	0.89330 0.60840 0.13560 0.03700
C 	C 	0.94560 0.67530 0.04710 0.09200
C 	C 	0.91710 0.65080 0.96580 -0.27400
H 	H 	0.89140 0.60860 0.96580 0.10300
C 	C 	0.92490 0.68650 0.88440 0.26000
C 	C 	0.89460 0.65650 0.79440 -0.68200
H 	H 	0.93080 0.62480 0.76900 0.20400
H 	H 	0.88550 0.69380 0.75220 0.19600
H 	H 	0.84850 0.63200 0.80580 0.17900
C 	C 	0.96400 0.75100 0.88590 -0.26100
H 	H 	0.97110 0.77560 0.83200 0.10100
C 	C 	0.99170 0.77780 0.96730 0.07600
C 	C 	0.98270 0.74160 0.04690 0.00200
C 	C 	0.95760 0.80780 0.18040 0.10500
H 	H 	0.92300 0.77670 0.21130 -0.01200
H 	H 	0.92900 0.83780 0.14010 -0.02600
H 	H 	0.03540 0.88170 0.21830 0.08400
C 	C 	0.02720 0.85080 0.96500 -0.11900
H 	H 	0.04220 0.86410 0.02610 0.06400
H 	H 	0.07180 0.84990 0.92710 0.04300
C 	C 	0.89800 0.90080 0.93300 0.06700
H 	H 	0.87130 0.86530 0.96150 -0.05600
C 	C 	0.92480 0.99270 0.86020 -0.00100
H 	H 	0.92020 0.03360 0.82660 -0.02400
C 	C 	0.98980 0.96290 0.88390 -0.03100
H 	H 	0.03760 0.98010 0.87180 0.01900
N 	N 	0.11700 0.53410 0.12700 -0.30800
N 	N 	0.00320 0.57890 0.13290 -0.09900
N 	N 	0.97340 0.90310 0.92860 -0.11200
N 	N 	0.86650 0.95440 0.89240 -0.31100
O 	O 	0.01140 0.76760 0.12840 -0.21200
Cd	Cd	0.74287 0.96963 0.87102 1.08500
C 	C 	0.56540 0.01880 0.88000 -0.01100
H 	H 	0.57690 0.06590 0.88700 -0.02600
C 	C 	0.49480 0.99200 0.87530 -0.01800
H 	H 	0.44980 0.01670 0.87720 0.01400
C 	C 	0.57640 0.90770 0.86730 0.06700
H 	H 	0.59680 0.86310 0.86380 -0.04000
C 	C 	0.44150 0.86810 0.86740 -0.13000
H 	H 	0.44610 0.83820 0.81440 0.07100
H 	H 	0.39330 0.89160 0.86440 0.03500
C 	C 	0.44560 0.82470 0.95290 0.09000
C 	C 	0.41710 0.84920 0.03420 -0.27200
H 	H 	0.39140 0.89140 0.03420 0.10300
C 	C 	0.42490 0.81350 0.11560 0.26300
C 	C 	0.39460 0.84350 0.20560 -0.68600
H 	H 	0.43080 0.87520 0.23100 0.20700
H 	H 	0.38550 0.80620 0.24780 0.19900
H 	H 	0.34850 0.86800 0.19420 0.18100
C 	C 	0.46400 0.74900 0.11410 -0.26400
H 	H 	0.47110 0.72440 0.16800 0.10400
C 	C 	0.49170 0.72220 0.03270 0.08300
C 	C 	0.48270 0.75840 0.95310 0.00700
C 	C 	0.45760 0.69220 0.81960 0.13200
H 	H 	0.42300 0.72330 0.78870 -0.01900
H 	H 	0.42900 0.66220 0.85990 -0.03300
H 	H 	0.53540 0.61830 0.78170 0.09100
C 	C 	0.52720 0.64920 0.03500 -0.12700
H 	H 	0.54220 0.63590 0.97390 0.06500
H 	H 	0.57180 0.65010 0.07290 0.04400
C 	C 	0.39800 0.59920 0.06700 0.06600
H 	H 	0.37130 0.63470 0.03850 -0.05500
C 	C 	0.42480 0.50730 0.13980 -0.00700
H 	H 	0.42020 0.46640 0.17340 -0.02200
C 	C 	0.48980 0.53710 0.11610 -0.01600
H 	H 	0.53760 0.51990 0.12820 0.01100
N 	N 	0.61700 0.96590 0.87300 -0.30700
N 	N 	0.50320 0.92110 0.86710 -0.10600
N 	N 	0.47340 0.59690 0.07140 -0.11100
N 	N 	0.36650 0.54560 0.10760 -0.31000
O 	O 	0.51140 0.73240 0.87160 -0.22200
Cd	Cd	0.75713 0.53037 0.37102 1.08500
C 	C 	0.93460 0.48120 0.38000 -0.02800
H 	H 	0.92310 0.43410 0.38700 -0.02200
C 	C 	0.00520 0.50800 0.37530 0.00200
H 	H 	0.05020 0.48330 0.37720 0.00700
C 	C 	0.92360 0.59230 0.36730 0.06700
H 	H 	0.90320 0.63690 0.36380 -0.04100
C 	C 	0.05850 0.63190 0.36740 -0.12300
H 	H 	0.05390 0.66180 0.31440 0.07100
H 	H 	0.10670 0.60840 0.36440 0.03400
C 	C 	0.05440 0.67530 0.45290 0.08900
C 	C 	0.08290 0.65080 0.53420 -0.27400
H 	H 	0.10860 0.60860 0.53420 0.10300
C 	C 	0.07510 0.68650 0.61560 0.26600
C 	C 	0.10540 0.65650 0.70560 -0.69000
H 	H 	0.06920 0.62480 0.73100 0.20900
H 	H 	0.11450 0.69380 0.74780 0.20000
H 	H 	0.15150 0.63200 0.69420 0.18200
C 	C 	0.03600 0.75100 0.61410 -0.26700
H 	H 	0.02890 0.77560 0.66800 0.10700
C 	C 	0.00830 0.77780 0.53270 0.08900
C 	C 	0.01730 0.74160 0.45310 0.01100
C 	C 	0.04240 0.80780 0.31960 0.12500
H 	H 	0.07700 0.77670 0.28870 -0.01700
H 	H 	0.07100 0.83780 0.35990 -0.03000
H 	H 	0.96460 0.88170 0.28170 0.07900
C 	C 	0.97280 0.85080 0.53500 -0.14000
H 	H 	0.95780 0.86410 0.47390 0.06700
H 	H 	0.92820 0.84990 0.57290 0.04700
C 	C 	0.10200 0.90080 0.56700 0.06600
H 	H 	0.12870 0.86530 0.53850 -0.05500
C 	C 	0.07520 0.99270 0.63980 -0.01300
H 	H 	0.07980 0.03360 0.67340 -0.01900
C 	C 	0.01020 0.96290 0.61610 -0.00400
H 	H 	0.96240 0.98010 0.62820 0.00300
N 	N 	0.88300 0.53410 0.37300 -0.30400
N 	N 	0.99680 0.57890 0.36710 -0.11400
N 	N 	0.02660 0.90310 0.57140 -0.11000
N 	N 	0.13350 0.95440 0.60760 -0.30800
O 	O 	0.98860 0.76760 0.37160 -0.22800
C 	C 	0.50000 0.64810 0.75000 -0.26500
C 	C 	-0.00000 0.85190 0.25000 -0.23600
Cd	Cd	0.75713 0.46963 0.62898 1.08500
C 	C 	0.93460 0.51880 0.62000 -0.02800
H 	H 	0.92310 0.56590 0.61300 -0.02200
C 	C 	0.00520 0.49200 0.62470 0.00200
H 	H 	0.05020 0.51670 0.62280 0.00700
C 	C 	0.92360 0.40770 0.63270 0.06700
H 	H 	0.90320 0.36310 0.63620 -0.04100
C 	C 	0.05850 0.36810 0.63260 -0.12300
H 	H 	0.05390 0.33820 0.68560 0.07100
H 	H 	0.10670 0.39160 0.63560 0.03400
C 	C 	0.05440 0.32470 0.54710 0.08900
C 	C 	0.08290 0.34920 0.46580 -0.27400
H 	H 	0.10860 0.39140 0.46580 0.10300
C 	C 	0.07510 0.31350 0.38440 0.26600
C 	C 	0.10540 0.34350 0.29440 -0.69000
H 	H 	0.06920 0.37520 0.26900 0.20900
H 	H 	0.11450 0.30620 0.25220 0.20000
H 	H 	0.15150 0.36800 0.30580 0.18200
C 	C 	0.03600 0.24900 0.38590 -0.26700
H 	H 	0.02890 0.22440 0.33200 0.10700
C 	C 	0.00830 0.22220 0.46730 0.08900
C 	C 	0.01730 0.25840 0.54690 0.01100
C 	C 	0.04240 0.19220 0.68040 0.12500
H 	H 	0.07700 0.22330 0.71130 -0.01700
H 	H 	0.07100 0.16220 0.64010 -0.03000
H 	H 	0.96460 0.11830 0.71830 0.07900
C 	C 	0.97280 0.14920 0.46500 -0.14000
H 	H 	0.95780 0.13590 0.52610 0.06700
H 	H 	0.92820 0.15010 0.42710 0.04700
C 	C 	0.10200 0.09920 0.43300 0.06600
H 	H 	0.12870 0.13470 0.46150 -0.05500
C 	C 	0.07520 0.00730 0.36020 -0.01300
H 	H 	0.07980 0.96640 0.32660 -0.01900
C 	C 	0.01020 0.03710 0.38390 -0.00400
H 	H 	0.96240 0.01990 0.37180 0.00300
N 	N 	0.88300 0.46590 0.62700 -0.30400
N 	N 	0.99680 0.42110 0.63290 -0.11400
N 	N 	0.02660 0.09690 0.42860 -0.11000
N 	N 	0.13350 0.04560 0.39240 -0.30800
O 	O 	0.98860 0.23240 0.62840 -0.22800
Cd	Cd	0.74287 0.03037 0.12898 1.08500
C 	C 	0.56540 0.98120 0.12000 -0.01100
H 	H 	0.57690 0.93410 0.11300 -0.02600
C 	C 	0.49480 0.00800 0.12470 -0.01800
H 	H 	0.44980 0.98330 0.12280 0.01400
C 	C 	0.57640 0.09230 0.13270 0.06700
H 	H 	0.59680 0.13690 0.13620 -0.04000
C 	C 	0.44150 0.13190 0.13260 -0.13000
H 	H 	0.44610 0.16180 0.18560 0.07100
H 	H 	0.39330 0.10840 0.13560 0.03500
C 	C 	0.44560 0.17530 0.04710 0.09000
C 	C 	0.41710 0.15080 0.96580 -0.27200
H 	H 	0.39140 0.10860 0.96580 0.10300
C 	C 	0.42490 0.18650 0.88440 0.26300
C 	C 	0.39460 0.15650 0.79440 -0.68600
H 	H 	0.43080 0.12480 0.76900 0.20700
H 	H 	0.38550 0.19380 0.75220 0.19900
H 	H 	0.34850 0.13200 0.80580 0.18100
C 	C 	0.46400 0.25100 0.88590 -0.26400
H 	H 	0.47110 0.27560 0.83200 0.10400
C 	C 	0.49170 0.27780 0.96730 0.08300
C 	C 	0.48270 0.24160 0.04690 0.00700
C 	C 	0.45760 0.30780 0.18040 0.13200
H 	H 	0.42300 0.27670 0.21130 -0.01900
H 	H 	0.42900 0.33780 0.14010 -0.03300
H 	H 	0.53540 0.38170 0.21830 0.09100
C 	C 	0.52720 0.35080 0.96500 -0.12700
H 	H 	0.54220 0.36410 0.02610 0.06500
H 	H 	0.57180 0.34990 0.92710 0.04400
C 	C 	0.39800 0.40080 0.93300 0.06600
H 	H 	0.37130 0.36530 0.96150 -0.05500
C 	C 	0.42480 0.49270 0.86020 -0.00700
H 	H 	0.42020 0.53360 0.82660 -0.02200
C 	C 	0.48980 0.46290 0.88390 -0.01600
H 	H 	0.53760 0.48010 0.87180 0.01100
N 	N 	0.61700 0.03410 0.12700 -0.30700
N 	N 	0.50320 0.07890 0.13290 -0.10600
N 	N 	0.47340 0.40310 0.92860 -0.11100
N 	N 	0.36650 0.45440 0.89240 -0.31000
O 	O 	0.51140 0.26760 0.12840 -0.22200
Cd	Cd	0.24287 0.46963 0.87102 1.08600
C 	C 	0.06540 0.51880 0.88000 -0.00100
H 	H 	0.07690 0.56590 0.88700 -0.02900
C 	C 	0.99480 0.49200 0.87530 -0.03300
H 	H 	0.94980 0.51670 0.87720 0.01800
C 	C 	0.07640 0.40770 0.86730 0.06800
H 	H 	0.09680 0.36310 0.86380 -0.03900
C 	C 	0.94150 0.36810 0.86740 -0.13800
H 	H 	0.94610 0.33820 0.81440 0.07200
H 	H 	0.89330 0.39160 0.86440 0.03700
C 	C 	0.94560 0.32470 0.95290 0.09200
C 	C 	0.91710 0.34920 0.03420 -0.27400
H 	H 	0.89140 0.39140 0.03420 0.10300
C 	C 	0.92490 0.31350 0.11560 0.26000
C 	C 	0.89460 0.34350 0.20560 -0.68200
H 	H 	0.93080 0.37520 0.23100 0.20400
H 	H 	0.88550 0.30620 0.24780 0.19600
H 	H 	0.84850 0.36800 0.19420 0.17900
C 	C 	0.96400 0.24900 0.11410 -0.26100
H 	H 	0.97110 0.22440 0.16800 0.10100
C 	C 	0.99170 0.22220 0.03270 0.07600
C 	C 	0.98270 0.25840 0.95310 0.00200
C 	C 	0.95760 0.19220 0.81960 0.10500
H 	H 	0.92300 0.22330 0.78870 -0.01200
H 	H 	0.92900 0.16220 0.85990 -0.02600
H 	H 	0.03540 0.11830 0.78170 0.08400
C 	C 	0.02720 0.14920 0.03500 -0.11900
H 	H 	0.04220 0.13590 0.97390 0.06400
H 	H 	0.07180 0.15010 0.07290 0.04300
C 	C 	0.89800 0.09920 0.06700 0.06700
H 	H 	0.87130 0.13470 0.03850 -0.05600
C 	C 	0.92480 0.00730 0.13980 -0.00100
H 	H 	0.92020 0.96640 0.17340 -0.02400
C 	C 	0.98980 0.03710 0.11610 -0.03100
H 	H 	0.03760 0.01990 0.12820 0.01900
N 	N 	0.11700 0.46590 0.87300 -0.30800
N 	N 	0.00320 0.42110 0.86710 -0.09900
N 	N 	0.97340 0.09690 0.07140 -0.11200
N 	N 	0.86650 0.04560 0.10760 -0.31100
O 	O 	0.01140 0.23240 0.87160 -0.21200
Cd	Cd	0.25713 0.03037 0.37102 1.08600
C 	C 	0.43460 0.98120 0.38000 -0.01400
H 	H 	0.42310 0.93410 0.38700 -0.02600
C 	C 	0.50520 0.00800 0.37530 -0.01500
H 	H 	0.55020 0.98330 0.37720 0.01300
C 	C 	0.42360 0.09230 0.36730 0.06800
H 	H 	0.40320 0.13690 0.36380 -0.04000
C 	C 	0.55850 0.13190 0.36740 -0.13000
H 	H 	0.55390 0.16180 0.31440 0.07100
H 	H 	0.60670 0.10840 0.36440 0.03500
C 	C 	0.55440 0.17530 0.45290 0.09000
C 	C 	0.58290 0.15080 0.53420 -0.27400
H 	H 	0.60860 0.10860 0.53420 0.10300
C 	C 	0.57510 0.18650 0.61560 0.26300
C 	C 	0.60540 0.15650 0.70560 -0.68600
H 	H 	0.56920 0.12480 0.73100 0.20700
H 	H 	0.61450 0.19380 0.74780 0.19800
H 	H 	0.65150 0.13200 0.69420 0.18100
C 	C 	0.53600 0.25100 0.61410 -0.26400
H 	H 	0.52890 0.27560 0.66800 0.10400
C 	C 	0.50830 0.27780 0.53270 0.08200
C 	C 	0.51730 0.24160 0.45310 0.00800
C 	C 	0.54240 0.30780 0.31960 0.13200
H 	H 	0.57700 0.27670 0.28870 -0.01900
H 	H 	0.57100 0.33780 0.35990 -0.03300
H 	H 	0.46460 0.38170 0.28170 0.09200
C 	C 	0.47280 0.35080 0.53500 -0.12800
H 	H 	0.45780 0.36410 0.47390 0.06500
H 	H 	0.42820 0.34990 0.57290 0.04400
C 	C 	0.60200 0.40080 0.56700 0.06600
H 	H 	0.62870 0.36530 0.53850 -0.05600
C 	C 	0.57520 0.49270 0.63980 -0.00700
H 	H 	0.57980 0.53360 0.67340 -0.02200
C 	C 	0.51020 0.46290 0.61610 -0.01700
H 	H 	0.46240 0.48010 0.62820 0.01100
N 	N 	0.38300 0.03410 0.37300 -0.30600
N 	N 	0.49680 0.07890 0.36710 -0.10600
N 	N 	0.52660 0.40310 0.57140 -0.11100
N 	N 	0.63350 0.45440 0.60760 -0.31000
O 	O 	0.48860 0.26760 0.37160 -0.22200
C 	C 	-0.00000 0.14810 0.75000 -0.23600
C 	C 	0.50000 0.35190 0.25000 -0.26500
