data_crystal

_cell_length_a 13.32970
_cell_length_b 16.32130
_cell_length_c 16.32130
_cell_angle_alpha 80.40100
_cell_angle_beta  65.89870
_cell_angle_gamma 65.89870

_symmetry_space_group_name_	'P 1'
_symmetry_space_group_name_H-M	'P 1'

loop_
_symmetry_equiv_pos_as_xyz
  x,y,z

loop_
_atom_site_label
_atom_site_type_symbol
_atom_site_fract_x
_atom_site_fract_y
_atom_site_fract_z
_atom_site_charge
Na	Na	0.39379 0.93040 0.09248 0.58600
Na	Na	0.41667 0.06960 0.90752 0.57900
Na	Na	0.73627 0.40752 0.43040 0.58100
Na	Na	0.57419 0.59248 0.56960 0.58400
Na	Na	0.91667 0.90752 0.06960 0.57800
Na	Na	0.89379 0.09248 0.93040 0.58400
Na	Na	0.07419 0.56960 0.59248 0.58500
Na	Na	0.23627 0.43040 0.40752 0.58200
Co	Co	0.63702 0.00000 -0.00000 1.09800
Co	Co	0.88702 0.50000 0.50000 1.17600
Co	Co	0.13702 0.00000 -0.00000 1.09800
Co	Co	0.38702 0.50000 0.50000 1.17900
H 	H 	0.64110 0.73040 0.16020 0.03400
H 	H 	0.67560 0.62330 0.26890 0.04300
H 	H 	0.79010 0.74690 0.43550 0.07000
H 	H 	0.80190 0.88190 0.43610 0.04900
H 	H 	0.76710 0.98890 0.32890 0.05900
H 	H 	0.70810 0.96530 0.22550 0.08900
H 	H 	0.53170 0.26960 0.83980 0.04500
H 	H 	0.56780 0.37670 0.73110 0.04200
H 	H 	0.97250 0.25310 0.56450 0.07300
H 	H 	0.11990 0.11810 0.56390 0.02600
H 	H 	0.08490 0.01110 0.67110 0.00300
H 	H 	0.89890 0.03470 0.77450 0.04000
H 	H 	0.05130 0.33980 0.23040 0.04200
H 	H 	0.19450 0.23110 0.12330 0.02000
H 	H 	0.47560 0.06450 0.24690 0.05100
H 	H 	0.48800 0.06390 0.38190 0.01500
H 	H 	0.34600 0.17110 0.48890 0.02800
H 	H 	0.18360 0.27450 0.46530 0.06300
H 	H 	0.62150 0.66020 0.76960 0.04300
H 	H 	0.54890 0.76890 0.87670 0.06500
H 	H 	0.78700 0.93550 0.75310 0.10100
H 	H 	0.93380 0.93610 0.61810 0.04300
H 	H 	0.00600 0.82890 0.51110 0.07800
H 	H 	0.92340 0.72550 0.53470 0.04300
H 	H 	0.03170 0.83980 0.26960 0.05000
H 	H 	0.06780 0.73110 0.37670 0.04700
H 	H 	0.47250 0.56450 0.25310 0.07000
H 	H 	0.61990 0.56390 0.11810 0.03000
H 	H 	0.58490 0.67110 0.01110 0.00700
H 	H 	0.39890 0.77450 0.03470 0.03700
H 	H 	0.14110 0.16020 0.73040 0.03500
H 	H 	0.17560 0.26890 0.62330 0.04400
H 	H 	0.29010 0.43550 0.74690 0.07100
H 	H 	0.30190 0.43610 0.88190 0.05200
H 	H 	0.26710 0.32890 0.98890 0.06100
H 	H 	0.20810 0.22550 0.96530 0.09100
H 	H 	0.12150 0.76960 0.66020 0.04300
H 	H 	0.04890 0.87670 0.76890 0.07400
H 	H 	0.28700 0.75310 0.93550 0.08900
H 	H 	0.43380 0.61810 0.93610 0.06800
H 	H 	0.50600 0.51110 0.82890 0.03700
H 	H 	0.42340 0.53470 0.72550 0.06500
H 	H 	0.55130 0.23040 0.33980 0.03800
H 	H 	0.69450 0.12330 0.23110 0.01900
H 	H 	0.97560 0.24690 0.06450 0.04600
H 	H 	0.98800 0.38190 0.06390 0.01100
H 	H 	0.84600 0.48890 0.17110 0.02600
H 	H 	0.68360 0.46530 0.27450 0.06100
C 	C 	0.66129 0.88216 0.12146 0.35100
C 	C 	0.68249 0.81863 0.19739 -0.11600
C 	C 	0.66660 0.74076 0.20124 -0.01100
C 	C 	0.68840 0.67569 0.26671 -0.02300
C 	C 	0.72772 0.68765 0.32671 -0.09800
C 	C 	0.74054 0.77029 0.32743 0.03700
C 	C 	0.77360 0.78977 0.39263 -0.07700
C 	C 	0.78140 0.87010 0.39250 -0.03200
C 	C 	0.75912 0.93499 0.32877 -0.01000
C 	C 	0.72588 0.92024 0.26640 -0.10300
C 	C 	0.71770 0.83742 0.26218 0.04400
C 	C 	0.75300 0.60991 0.39149 0.35000
C 	C 	0.66491 0.11784 0.87854 0.34600
C 	C 	0.69851 0.18137 0.80261 -0.11600
C 	C 	0.60860 0.25924 0.79876 -0.01200
C 	C 	0.63080 0.32431 0.73329 -0.01700
C 	C 	0.74208 0.31235 0.67329 -0.10200
C 	C 	0.83826 0.22971 0.67257 0.04300
C 	C 	0.95600 0.21023 0.60737 -0.10900
C 	C 	0.04400 0.12990 0.60750 -0.01900
C 	C 	0.02288 0.06501 0.67123 -0.01300
C 	C 	0.91252 0.07976 0.73360 -0.13100
C 	C 	0.81730 0.16258 0.73782 0.03300
C 	C 	0.75440 0.39009 0.60851 0.35100
C 	C 	0.03275 0.37854 0.38216 0.36600
C 	C 	0.12988 0.30261 0.31863 -0.11700
C 	C 	0.11784 0.29876 0.24076 -0.02400
C 	C 	0.20511 0.23329 0.17569 -0.01300
C 	C 	0.30443 0.17329 0.18765 -0.12100
C 	C 	0.31797 0.17257 0.27029 0.03800
C 	C 	0.41623 0.10737 0.28977 -0.09200
C 	C 	0.42390 0.10750 0.37010 -0.03500
C 	C 	0.33789 0.17123 0.43499 -0.02900
C 	C 	0.24228 0.23360 0.42024 -0.10500
C 	C 	0.22988 0.23782 0.33742 0.03100
C 	C 	0.39449 0.10851 0.10991 0.35400
C 	C 	0.79345 0.62146 0.61784 0.35000
C 	C 	0.75112 0.69739 0.68137 -0.10700
C 	C 	0.65736 0.70124 0.75924 -0.00300
C 	C 	0.61409 0.76671 0.82431 -0.02100
C 	C 	0.66537 0.82671 0.81235 -0.08300
C 	C 	0.76083 0.82743 0.72971 0.05900
C 	C 	0.81337 0.89263 0.71023 -0.10600
C 	C 	0.90150 0.89250 0.62990 0.01800
C 	C 	0.94411 0.82877 0.56501 -0.09000
C 	C 	0.89612 0.76640 0.57976 -0.06000
C 	C 	0.80512 0.76218 0.66258 0.02000
C 	C 	0.61291 0.89149 0.89009 0.34200
C 	C 	0.16491 0.87854 0.11784 0.34500
C 	C 	0.19851 0.80261 0.18137 -0.11200
C 	C 	0.10860 0.79876 0.25924 -0.01100
C 	C 	0.13080 0.73329 0.32431 -0.01800
C 	C 	0.24208 0.67329 0.31235 -0.09800
C 	C 	0.33826 0.67257 0.22971 0.04000
C 	C 	0.45600 0.60737 0.21023 -0.08600
C 	C 	0.54400 0.60750 0.12990 -0.03800
C 	C 	0.52288 0.67123 0.06501 -0.03100
C 	C 	0.41252 0.73360 0.07976 -0.10900
C 	C 	0.31730 0.73782 0.16258 0.03000
C 	C 	0.25440 0.60851 0.39009 0.34900
C 	C 	0.16129 0.12146 0.88216 0.35100
C 	C 	0.18249 0.19739 0.81863 -0.11400
C 	C 	0.16660 0.20124 0.74076 -0.00900
C 	C 	0.18840 0.26671 0.67569 -0.02200
C 	C 	0.22772 0.32671 0.68765 -0.09500
C 	C 	0.24054 0.32743 0.77029 0.03800
C 	C 	0.27360 0.39263 0.78977 -0.07400
C 	C 	0.28140 0.39250 0.87010 -0.03000
C 	C 	0.25912 0.32877 0.93499 -0.00800
C 	C 	0.22588 0.26640 0.92024 -0.10200
C 	C 	0.21770 0.26218 0.83742 0.04600
C 	C 	0.25300 0.39149 0.60991 0.34900
C 	C 	0.29345 0.61784 0.62146 0.35400
C 	C 	0.25112 0.68137 0.69739 -0.11800
C 	C 	0.15736 0.75924 0.70124 0.01000
C 	C 	0.11409 0.82431 0.76671 -0.03200
C 	C 	0.16537 0.81235 0.82671 -0.06700
C 	C 	0.26083 0.72971 0.82743 0.03500
C 	C 	0.31337 0.71023 0.89263 -0.06500
C 	C 	0.40150 0.62990 0.89250 -0.03700
C 	C 	0.44411 0.56501 0.82877 -0.00700
C 	C 	0.39612 0.57976 0.76640 -0.11000
C 	C 	0.30512 0.66258 0.76218 0.05000
C 	C 	0.11291 0.89009 0.89149 0.33600
C 	C 	0.53275 0.38216 0.37854 0.34600
C 	C 	0.62988 0.31863 0.30261 -0.11500
C 	C 	0.61784 0.24076 0.29876 -0.02600
C 	C 	0.70511 0.17569 0.23329 -0.01600
C 	C 	0.80443 0.18765 0.17329 -0.11800
C 	C 	0.81797 0.27029 0.17257 0.03400
C 	C 	0.91623 0.28977 0.10737 -0.09200
C 	C 	0.92390 0.37010 0.10750 -0.03800
C 	C 	0.83789 0.43499 0.17123 -0.03000
C 	C 	0.74228 0.42024 0.23360 -0.10600
C 	C 	0.72988 0.33742 0.23782 0.03000
C 	C 	0.89449 0.10991 0.10851 0.33700
O 	O 	0.57903 0.88949 0.10005 -0.41400
O 	O 	0.72755 0.92620 0.08180 -0.46100
O 	O 	0.83783 0.59664 0.41550 -0.44200
O 	O 	0.69024 0.56513 0.41599 -0.41600
O 	O 	0.56857 0.11051 0.89995 -0.41500
O 	O 	0.73555 0.07380 0.91820 -0.46100
O 	O 	0.84997 0.40336 0.58450 -0.43900
O 	O 	0.67136 0.43487 0.58401 -0.41900
O 	O 	0.92908 0.39995 0.38949 -0.44300
O 	O 	0.05935 0.41820 0.42620 -0.47200
O 	O 	0.50333 0.08450 0.09664 -0.48100
O 	O 	0.35623 0.08401 0.06513 -0.48500
O 	O 	0.71852 0.60005 0.61051 -0.42100
O 	O 	0.90375 0.58180 0.57380 -0.47700
O 	O 	0.68447 0.91550 0.90336 -0.36800
O 	O 	0.50537 0.91599 0.93487 -0.34100
O 	O 	0.06857 0.89995 0.11051 -0.41000
O 	O 	0.23555 0.91820 0.07380 -0.45700
O 	O 	0.34997 0.58450 0.40336 -0.43500
O 	O 	0.17136 0.58401 0.43487 -0.41400
O 	O 	0.07903 0.10005 0.88949 -0.41100
O 	O 	0.22755 0.08180 0.92620 -0.45900
O 	O 	0.33783 0.41550 0.59664 -0.43900
O 	O 	0.19024 0.41599 0.56513 -0.41300
O 	O 	0.21852 0.61051 0.60005 -0.42000
O 	O 	0.40375 0.57380 0.58180 -0.47200
O 	O 	0.18447 0.90336 0.91550 -0.36300
O 	O 	0.00537 0.93487 0.91599 -0.33300
O 	O 	0.42908 0.38949 0.39995 -0.42700
O 	O 	0.55935 0.42620 0.41820 -0.47400
O 	O 	0.00333 0.09664 0.08450 -0.46500
O 	O 	0.85623 0.06513 0.08401 -0.48400
