data_crystal

_audit_creation_method 'AiiDA-DDEC plugin'

_cell_length_a        13.63866
_cell_length_b        13.56474
_cell_length_c        39.59329

_cell_angle_alpha     89.87519
_cell_angle_beta     89.83919
_cell_angle_gamma     89.89405

_symmetry_space_group_name_Hall 'P 1'
_symmetry_space_group_name_H-M  'P 1'

loop_
_symmetry_equiv_pos_as_xyz
 'x,y,z'

loop_
_atom_site_label
_atom_site_type_symbol
_atom_site_fract_x
_atom_site_fract_y
_atom_site_fract_z
_atom_site_charge
Ag         Ag      0.99175   0.49194   0.09589   0.36579
Ag         Ag      0.50094   0.99633   0.90281   0.35446
Ag         Ag      0.50232   0.50438   0.65277   0.36093
Ag         Ag     -0.00025   0.00136   0.84781   0.36378
Ag         Ag      0.49839   0.00020   0.59678   0.35753
Ag         Ag      0.00049   0.49994   0.40417   0.36151
Ag         Ag      0.00112   0.00079   0.15413   0.36475
Ag         Ag      0.50411   0.49991   0.34673   0.35365
Ag         Ag      0.86336   0.39377   0.24418   0.32147
Ag         Ag      0.13940   0.61065   0.24532   0.32326
Ag         Ag      0.38285   0.13462   0.75342   0.32452
Ag         Ag      0.62052   0.86421   0.75556   0.31262
Ag         Ag      0.63870   0.37852   0.50491   0.31841
Ag         Ag      0.36229   0.61640   0.50603   0.32286
Ag         Ag      0.12222   0.13367   0.99561   0.31985
Ag         Ag      0.87865   0.85963   0.99525   0.32211
Ag         Ag      0.36220   0.88020   0.74679   0.31529
Ag         Ag      0.63559   0.12140   0.74577   0.32403
Ag         Ag      0.88674   0.64231   0.25747   0.30906
Ag         Ag      0.11997   0.36049   0.25548   0.32746
Ag         Ag      0.13904   0.88347   0.00636   0.31792
Ag         Ag      0.86083   0.10466   0.00504   0.30634
Ag         Ag      0.61097   0.63250   0.49399   0.32709
Ag         Ag      0.38248   0.36214   0.49464   0.31629
C          C       0.92434   0.52836   0.17517   0.09405
C          C       0.06811   0.47151   0.17330   0.09383
C          C       0.51941   0.07143   0.82531   0.09244
C          C       0.46924   0.92435   0.82491   0.09514
C          C       0.56774   0.53566   0.57430   0.09437
C          C       0.42461   0.47770   0.57538   0.09245
C          C       0.97113   0.07519   0.92526   0.09326
C          C       0.03514   0.93447   0.92677   0.09139
C          C       0.42927   0.03395   0.67451   0.09243
C          C       0.57075   0.97208   0.67505   0.09400
C          C       0.02197   0.57365   0.32678   0.09857
C          C       0.96485   0.42923   0.32580   0.09745
C          C       0.08015   0.02271   0.07583   0.09513
C          C       0.93524   0.97060   0.07557   0.09400
C          C       0.46561   0.56695   0.42368   0.09302
C          C       0.53016   0.42599   0.42431   0.09366
C          C       0.82590   0.57136   0.16646   0.66120
C          C       0.16101   0.42358   0.16120   0.66113
C          C       0.56307   0.16902   0.83534   0.66107
C          C       0.43354   0.82365   0.83513   0.65756
C          C       0.66502   0.57776   0.58449   0.65982
C          C       0.33126   0.42934   0.58686   0.66143
C          C       0.91949   0.16615   0.91328   0.65894
C          C       0.08367   0.83952   0.91735   0.66129
C          C       0.33480   0.07727   0.66214   0.66191
C          C       0.66289   0.92121   0.66382   0.66221
C          C       0.07270   0.66441   0.33977   0.65537
C          C       0.92843   0.32881   0.33612   0.65844
C          C       0.17454   0.06862   0.08697   0.65904
C          C       0.83925   0.93033   0.08747   0.65991
C          C       0.41862   0.66073   0.41179   0.65883
C          C       0.58209   0.33349   0.41385   0.66162
C          C       0.93434   0.66564   0.04067   0.10019
C          C       0.05758   0.32416   0.04010   0.09533
C          C       0.65835   0.06118   0.96304   0.10040
C          C       0.32919   0.92854   0.95705   0.10044
C          C       0.57204   0.67351   0.70868   0.09983
C          C       0.43716   0.34276   0.71092   0.09813
C          C       0.82756   0.06828   0.79277   0.10168
C          C       0.16240   0.93077   0.79057   0.09692
C          C       0.42930   0.16680   0.53944   0.09938
C          C       0.56780   0.82592   0.54336   0.10050
C          C       0.17382   0.56610   0.45752   0.09638
C          C       0.83802   0.43496   0.46147   0.09797
C          C       0.06214   0.17340   0.20790   0.09786
C          C       0.93806   0.82777   0.20929   0.09597
C          C       0.33394   0.56070   0.29093   0.10094
C          C       0.66193   0.44602   0.28689   0.09630
C          C       0.08176   0.69309   0.05247   0.10596
C          C       0.91013   0.29464   0.05149   0.10567
C          C       0.68600   0.91379   0.94937   0.10351
C          C       0.30238   0.07754   0.94475   0.10698
C          C       0.42324   0.70046   0.69770   0.10757
C          C       0.58411   0.31149   0.69836   0.10495
C          C       0.80240   0.91855   0.80358   0.10587
C          C       0.18653   0.08201   0.79909   0.10609
C          C       0.57712   0.19104   0.55166   0.10299
C          C       0.42009   0.79990   0.55647   0.10683
C          C       0.19780   0.41652   0.44653   0.10617
C          C       0.80265   0.58042   0.44735   0.10854
C          C       0.91580   0.20360   0.19480   0.10595
C          C       0.08606   0.80334   0.19739   0.10570
C          C       0.31358   0.41063   0.30273   0.11027
C          C       0.68914   0.59243   0.30163   0.10515
C          C       0.18208   0.68820   0.06778   0.66193
C          C       0.80467   0.30268   0.06206   0.66104
C          C       0.68574   0.81520   0.93233   0.66579
C          C       0.30629   0.18069   0.93055   0.66274
C          C       0.32045   0.69484   0.68424   0.65913
C          C       0.68338   0.30783   0.68171   0.66584
C          C       0.80576   0.81528   0.81734   0.66095
C          C       0.18869   0.18368   0.81398   0.66334
C          C       0.67538   0.19168   0.56838   0.66453
C          C       0.31773   0.80761   0.57060   0.66042
C          C       0.19299   0.31592   0.43086   0.66374
C          C       0.80497   0.68196   0.43213   0.66268
C          C       0.81525   0.19848   0.17945   0.66867
C          C       0.18556   0.80653   0.18137   0.66346
C          C       0.32042   0.31184   0.32001   0.66285
C          C       0.68250   0.69239   0.31790   0.66239
C          C       0.83561   0.61719   0.04105   0.66137
C          C       0.15350   0.37675   0.03750   0.66393
C          C       0.61840   0.16455   0.96277   0.66494
C          C       0.37336   0.82662   0.95797   0.66407
C          C       0.67249   0.62671   0.70850   0.66289
C          C       0.33806   0.39146   0.71163   0.66255
C          C       0.86677   0.17144   0.79427   0.66474
C          C       0.11987   0.82858   0.79317   0.66436
C          C       0.32789   0.12416   0.53749   0.66290
C          C       0.66794   0.87211   0.54096   0.66456
C          C       0.12829   0.66654   0.45855   0.66156
C          C       0.89662   0.34114   0.46396   0.66235
C          C       0.16219   0.12735   0.20835   0.65832
C          C       0.83634   0.86918   0.20874   0.66233
C          C       0.37465   0.66357   0.29093   0.66659
C          C       0.61285   0.34795   0.28295   0.66142
N          N       0.99298   0.49749   0.15264  -0.29858
N          N       0.49756   0.99620   0.84668  -0.29196
N          N       0.49580   0.51034   0.59643  -0.29670
N          N       0.00684   0.00470   0.90438  -0.29683
N          N       0.49969   0.00042   0.65322  -0.29792
N          N       0.99261   0.50024   0.34782  -0.29777
N          N       0.00685  -0.00207   0.09731  -0.30030
N          N       0.49803   0.49572   0.40243  -0.29416
N          N       0.95436   0.52178   0.20735  -0.20637
N          N       0.04830   0.48565   0.20615  -0.20944
N          N       0.50594   0.04826   0.79268  -0.20477
N          N       0.47435   0.95237   0.79247  -0.20077
N          N       0.54414   0.51811   0.54202  -0.20505
N          N       0.45044   0.48143   0.54268  -0.20744
N          N       0.97645   0.05080   0.95807  -0.20081
N          N       0.01724   0.95836   0.95900  -0.21406
N          N       0.45409   0.02669   0.70714  -0.19830
N          N       0.54698   0.98729   0.70753  -0.21261
N          N       0.01335   0.55033   0.29398  -0.20502
N          N       0.97692   0.45578   0.29335  -0.21068
N          N       0.05611   0.01172   0.04318  -0.20197
N          N       0.96101   0.97839   0.04307  -0.20626
N          N       0.47794   0.54417   0.45638  -0.20712
N          N       0.51883   0.45155   0.45680  -0.21075
N          N       0.00762   0.63129   0.06034  -0.30951
N          N       0.98207   0.35953   0.05877  -0.30105
N          N       0.62506   0.98953   0.94227  -0.29624
N          N       0.36167   0.00139   0.93645  -0.30016
N          N       0.49806   0.63991   0.68913  -0.30334
N          N       0.51085   0.37468   0.69065  -0.30021
N          N       0.86289   0.99340   0.81189  -0.30114
N          N       0.12762   0.00729   0.80899  -0.30201
N          N       0.50120   0.13154   0.55964  -0.29601
N          N       0.49569   0.86032   0.56379  -0.30014
N          N       0.13923   0.49287   0.43788  -0.30007
N          N       0.86920   0.50900   0.44119  -0.30388
N          N       0.98968   0.14029   0.18771  -0.30222
N          N       0.01003   0.86224   0.18895  -0.30205
N          N       0.37140   0.48790   0.31031  -0.30310
N          N       0.62636   0.51738   0.30736  -0.29773
N          N       0.96075   0.74324   0.02167  -0.14952
N          N       0.03467   0.24352   0.02255  -0.14467
N          N       0.73548   0.03225   0.98151  -0.14930
N          N       0.25500   0.95745   0.97699  -0.15593
N          N       0.54489   0.74985   0.72806  -0.14384
N          N       0.46229   0.26460   0.72987  -0.15922
N          N       0.75055   0.04208   0.77386  -0.14991
N          N       0.23794   0.95645   0.77054  -0.14888
N          N       0.45878   0.24282   0.52026  -0.14689
N          N       0.53877   0.74953   0.52441  -0.15637
N          N       0.24852   0.53782   0.47720  -0.15201
N          N       0.75716   0.45858   0.47908  -0.14855
N          N       0.03546   0.25153   0.22646  -0.14935
N          N       0.96728   0.75363   0.22916  -0.14615
N          N       0.25705   0.53129   0.27251  -0.15372
N          N       0.74208   0.47394   0.26981  -0.15074
N          N       0.05677   0.76074   0.02937  -0.14752
N          N       0.93901   0.22433   0.02997  -0.14511
N          N       0.75324   0.93658   0.97266  -0.15166
N          N       0.23782   0.05387   0.96903  -0.14948
N          N       0.44858   0.76715   0.72088  -0.14727
N          N       0.55770   0.24473   0.72170  -0.14989
N          N       0.73458   0.94509   0.78089  -0.14446
N          N       0.25351   0.05454   0.77616  -0.15842
N          N       0.55450   0.25857   0.52826  -0.14596
N          N       0.44313   0.73280   0.53291  -0.15143
N          N       0.26413   0.44081   0.46993  -0.14449
N          N       0.73448   0.55322   0.46988  -0.15332
N          N       0.94029   0.27100   0.21802  -0.14989
N          N       0.06345   0.73736   0.22142  -0.15033
N          N       0.24355   0.43388   0.28021  -0.15041
N          N       0.75964   0.56890   0.27939  -0.14419
F          F       0.83340   0.66944   0.15826  -0.21095
F          F       0.14335   0.32995   0.14988  -0.21097
F          F       0.66175   0.15992   0.84160  -0.21426
F          F       0.33869   0.82535   0.84670  -0.21007
F          F       0.65674   0.66489   0.60157  -0.20578
F          F       0.35156   0.33451   0.59672  -0.21069
F          F       0.83305   0.14017   0.89826  -0.20836
F          F       0.18100   0.85048   0.90988  -0.20904
F          F       0.35178   0.16065   0.64352  -0.21123
F          F       0.64312   0.82919   0.65166  -0.20755
F          F       0.15800   0.63538   0.35508  -0.20790
F          F       0.83839   0.33066   0.35150  -0.20969
F          F       0.15780   0.16450   0.09671  -0.21156
F          F       0.85175   0.83930   0.10171  -0.20746
F          F       0.33276   0.64445   0.39506  -0.20607
F          F       0.67579   0.35483   0.40333  -0.21259
F          F       0.78280   0.52496   0.14000  -0.18906
F          F       0.20354   0.47453   0.13533  -0.19370
F          F       0.52275   0.20927   0.86348  -0.19410
F          F       0.49041   0.78488   0.85997  -0.19111
F          F       0.71374   0.51448   0.60513  -0.19665
F          F       0.28759   0.47525   0.61335  -0.18918
F          F       0.97201   0.21946   0.89027  -0.19379
F          F       0.04097   0.79921   0.88983  -0.18927
F          F       0.28638   0.01424   0.64157  -0.19387
F          F       0.70871   0.97049   0.63841  -0.19362
F          F       0.01863   0.71450   0.36314  -0.19366
F          F       0.99089   0.28490   0.35831  -0.19540
F          F       0.21690   0.02036   0.11332  -0.19268
F          F       0.79955   0.98972   0.11157  -0.19528
F          F       0.47757   0.71057   0.39001  -0.19270
F          F       0.53702   0.28533   0.38823  -0.19078
F          F       0.76371   0.56503   0.19337  -0.20613
F          F       0.22721   0.41529   0.18669  -0.20306
F          F       0.55131   0.23536   0.80986  -0.20098
F          F       0.43539   0.76023   0.80838  -0.20409
F          F       0.72234   0.59489   0.55678  -0.20423
F          F       0.26408   0.42495   0.56155  -0.20414
F          F       0.89805   0.22568   0.93990  -0.19998
F          F       0.07840   0.77409   0.94337  -0.20433
F          F       0.27347   0.10029   0.68823  -0.20189
F          F       0.72700   0.91021   0.68993  -0.20557
F          F       0.09686   0.72940   0.31490  -0.19948
F          F       0.92118   0.26979   0.30839  -0.20608
F          F       0.24113   0.07024   0.06142  -0.20193
F          F       0.77346   0.92030   0.06183  -0.20253
F          F       0.39813   0.72056   0.43841  -0.20377
F          F       0.58839   0.26949   0.44020  -0.20258
F          F       0.21273   0.77924   0.07835  -0.21447
F          F       0.76864   0.21482   0.07336  -0.21235
F          F       0.76874   0.80480   0.91320  -0.21607
F          F       0.21706   0.20989   0.91845  -0.21560
F          F       0.29217   0.77989   0.66836  -0.21318
F          F       0.69960   0.21451   0.66993  -0.21713
F          F       0.71381   0.78508   0.82675  -0.21495
F          F       0.27337   0.19518   0.83200  -0.21797
F          F       0.68564   0.27595   0.58678  -0.21382
F          F       0.28739   0.72070   0.58487  -0.21269
F          F       0.28438   0.28505   0.42145  -0.21416
F          F       0.71345   0.71011   0.42175  -0.21337
F          F       0.78250   0.28982   0.17007  -0.21456
F          F       0.21338   0.71427   0.17159  -0.21302
F          F       0.23449   0.29407   0.33666  -0.21229
F          F       0.76892   0.71528   0.33331  -0.21401
F          F       0.24997   0.65496   0.04514  -0.20113
F          F       0.74941   0.33020   0.03501  -0.20005
F          F       0.68509   0.73989   0.95505  -0.20258
F          F       0.33294   0.24553   0.95508  -0.20083
F          F       0.25475   0.67973   0.70982  -0.20356
F          F       0.75791   0.32979   0.70333  -0.20411
F          F       0.83806   0.75013   0.79355  -0.19861
F          F       0.18937   0.25510   0.78988  -0.19938
F          F       0.74969   0.18975   0.54522  -0.20374
F          F       0.25414   0.82992   0.54515  -0.20116
F          F       0.15710   0.24521   0.45186  -0.20139
F          F       0.83747   0.74989   0.45490  -0.19978
F          F       0.74945   0.16018   0.20177  -0.19959
F          F       0.25476   0.84007   0.20325  -0.20087
F          F       0.33728   0.23580   0.29830  -0.20112
F          F       0.66242   0.76477   0.29499  -0.19873
F          F       0.18132   0.62629   0.09486  -0.19762
F          F       0.79171   0.37028   0.08680  -0.19574
F          F       0.60704   0.80491   0.91172  -0.19675
F          F       0.37092   0.18955   0.90483  -0.19331
F          F       0.31365   0.62006   0.66167  -0.19483
F          F       0.68963   0.37032   0.65503  -0.19591
F          F       0.86541   0.80973   0.84476  -0.19429
F          F       0.11146   0.19998   0.83498  -0.19814
F          F       0.68568   0.11465   0.58994  -0.19612
F          F       0.31040   0.87899   0.59457  -0.19615
F          F       0.13456   0.31953   0.40318  -0.19739
F          F       0.86568   0.68507   0.40497  -0.19734
F          F       0.81494   0.14019   0.15164  -0.19946
F          F       0.18545   0.86501   0.15346  -0.19912
F          F       0.39343   0.31016   0.34329  -0.20041
F          F       0.61100   0.69492   0.34172  -0.19880
F          F       0.80982   0.59475   0.07346  -0.20622
F          F       0.19035   0.39542   0.06865  -0.20433
F          F       0.65761   0.21578   0.93644  -0.20581
F          F       0.37934   0.78527   0.92672  -0.20157
F          F       0.71269   0.62968   0.67688  -0.20570
F          F       0.30099   0.40016   0.67986  -0.20837
F          F       0.87515   0.20044   0.82692  -0.20253
F          F       0.10215   0.80498   0.82622  -0.20938
F          F       0.28736   0.10996   0.56851  -0.20284
F          F       0.71256   0.87963   0.57159  -0.20456
F          F       0.11574   0.70487   0.42699  -0.20470
F          F       0.90275   0.29507   0.43338  -0.20783
F          F       0.20368   0.12974   0.17695  -0.20303
F          F       0.80063   0.87031   0.17668  -0.20153
F          F       0.38866   0.69517   0.32324  -0.20766
F          F       0.60670   0.29977   0.31319  -0.20575
F          F       0.83768   0.53054   0.02333  -0.20647
F          F       0.13950   0.46530   0.02161  -0.20421
F          F       0.51903   0.16487   0.95844  -0.20950
F          F       0.46729   0.82996   0.97014  -0.21106
F          F       0.66657   0.52993   0.71820  -0.20803
F          F       0.34280   0.48459   0.72496  -0.20957
F          F       0.95782   0.17980   0.77993  -0.20978
F          F       0.03242   0.82043   0.77663  -0.20929
F          F       0.32878   0.03479   0.52163  -0.20689
F          F       0.66178   0.96569   0.52825  -0.21031
F          F       0.03743   0.66063   0.47334  -0.20692
F          F       0.99047   0.36451   0.47340  -0.20777
F          F       0.15750   0.03055   0.21827  -0.20738
F          F       0.83724   0.96463   0.22004  -0.20904
F          F       0.46334   0.66961   0.27496  -0.20687
F          F       0.51882   0.35982   0.27160  -0.20291
F          F       0.76398   0.67513   0.02814  -0.19417
F          F       0.22196   0.32506   0.01996  -0.19912
F          F       0.63884   0.21445   0.99157  -0.19820
F          F       0.32008   0.76542   0.97820  -0.20162
F          F       0.73576   0.67071   0.73001  -0.19837
F          F       0.27287   0.33957   0.73022  -0.19346
F          F       0.80576   0.23530   0.77826  -0.20052
F          F       0.18099   0.75983   0.77998  -0.19635
F          F       0.26783   0.18509   0.51987  -0.20216
F          F       0.72711   0.81980   0.52001  -0.20147
F          F       0.18432   0.73009   0.47664  -0.19740
F          F       0.86071   0.27562   0.48665  -0.19049
F          F       0.22257   0.17496   0.23002  -0.19678
F          F       0.77352   0.81586   0.22828  -0.20034
F          F       0.31337   0.72718   0.27503  -0.20104
F          F       0.66158   0.29005   0.26044  -0.20060

