data_crystal

_audit_creation_method 'AiiDA-DDEC plugin'

_cell_length_a        13.75188
_cell_length_b        13.74801
_cell_length_c         7.81733

_cell_angle_alpha     90.07235
_cell_angle_beta     89.98278
_cell_angle_gamma     90.69842

_symmetry_space_group_name_Hall 'P 1'
_symmetry_space_group_name_H-M  'P 1'

loop_
_symmetry_equiv_pos_as_xyz
 'x,y,z'

loop_
_atom_site_label
_atom_site_type_symbol
_atom_site_fract_x
_atom_site_fract_y
_atom_site_fract_z
_atom_site_charge
Ca         Ca      0.30678   0.25251   0.11636   1.41390
Ca         Ca      0.69421   0.74848   0.12956   1.41461
Ca         Ca      0.25282   0.69282   0.87582   1.41241
Ca         Ca      0.74754   0.30694   0.87662   1.41479
Ca         Ca      0.18845   0.25003   0.61936   1.41199
Ca         Ca      0.81265   0.74857   0.62974   1.40938
Ca         Ca      0.74840   0.18810   0.37277   1.41154
Ca         Ca      0.25259   0.81132   0.37202   1.41100
H          H       0.51960   0.23859   0.21526   0.38367
H          H       0.48118   0.76326   0.22820   0.38195
H          H       0.23717   0.48022   0.77620   0.38361
H          H       0.75758   0.52019   0.78215   0.38258
H          H       0.97600   0.23523   0.52167   0.38266
H          H       0.02470   0.76479   0.53121   0.38421
H          H       0.26011   0.48008   0.97524   0.38222
H          H       0.73338   0.51909   0.98095   0.38326
H          H       0.02496   0.73745   0.72888   0.38274
H          H       0.97564   0.26035   0.72014   0.38426
H          H       0.75337   0.97494   0.27398   0.38216
H          H       0.26402   0.02390   0.26814   0.38343
H          H       0.48119   0.74048   0.02879   0.38321
H          H       0.51942   0.26164   0.01618   0.38228
H          H       0.77851   0.97748   0.47254   0.38462
H          H       0.24058   0.02410   0.46735   0.38275
C          C       0.25814   0.02287   0.96149   0.18160
C          C       0.74454   0.97655   0.96723   0.18003
C          C       0.02342   0.73347   0.03474   0.18100
C          C       0.97618   0.25360   0.02903   0.17981
C          C       0.23869   0.02217   0.77495   0.18019
C          C       0.76508   0.97722   0.78097   0.18128
C          C       0.48120   0.75259   0.72031   0.18016
C          C       0.51918   0.26103   0.70949   0.18073
C          C       0.76393   0.51944   0.47412   0.18027
C          C       0.23799   0.47983   0.46851   0.18112
C          C       0.51963   0.24172   0.52286   0.17950
C          C       0.48225   0.77201   0.53359   0.18058
C          C       0.74378   0.51948   0.28773   0.17932
C          C       0.25713   0.48001   0.28182   0.18127
C          C       0.97684   0.23345   0.21532   0.18109
C          C       0.02384   0.75551   0.22057   0.18088
C          C       0.25584   0.91587   0.96185   0.17032
C          C       0.73780   0.08336   0.96469   0.16839
C          C       0.91633   0.73416   0.03648   0.16874
C          C       0.08331   0.25306   0.02877   0.17005
C          C       0.23988   0.91492   0.77725   0.16864
C          C       0.75495   0.08377   0.78031   0.17030
C          C       0.58824   0.75262   0.72046   0.16935
C          C       0.41216   0.26040   0.70723   0.16948
C          C       0.76374   0.41232   0.47169   0.16838
C          C       0.24348   0.58696   0.46881   0.16944
C          C       0.41250   0.24473   0.52250   0.17006
C          C       0.58947   0.76785   0.53575   0.16839
C          C       0.74714   0.41242   0.28723   0.17192
C          C       0.25947   0.58719   0.28420   0.16845
C          C       0.08384   0.23626   0.21314   0.17019
C          C       0.91683   0.75267   0.22046   0.16884
O          O       0.27221   0.08638   0.07596  -0.49190
O          O       0.73721   0.91308   0.08357  -0.49530
O          O       0.08606   0.71959   0.91902  -0.49448
O          O       0.91256   0.26711   0.91511  -0.49506
O          O       0.22614   0.08516   0.65949  -0.49184
O          O       0.78550   0.91516   0.66747  -0.49080
O          O       0.41753   0.73793   0.83430  -0.49265
O          O       0.58195   0.27355   0.82570  -0.49321
O          O       0.77578   0.58240   0.59064  -0.49416
O          O       0.22326   0.41656   0.58310  -0.49206
O          O       0.58303   0.22772   0.40852  -0.49323
O          O       0.41954   0.78513   0.41776  -0.49292
O          O       0.72767   0.58240   0.17386  -0.49251
O          O       0.26766   0.41664   0.16606  -0.49564
O          O       0.91434   0.21956   0.33163  -0.49159
O          O       0.08695   0.77173   0.33482  -0.49356
O          O       0.26398   0.84634   0.06652  -0.52231
O          O       0.72474   0.15306   0.06778  -0.52186
O          O       0.84617   0.72455   0.93313  -0.52063
O          O       0.15314   0.26279   0.92460  -0.52317
O          O       0.23208   0.84397   0.67494  -0.51976
O          O       0.75956   0.15369   0.67584  -0.52059
O          O       0.65768   0.74199   0.82456  -0.52154
O          O       0.34194   0.26883   0.81045  -0.52239
O          O       0.77147   0.34222   0.57492  -0.51777
O          O       0.23819   0.65703   0.57305  -0.51746
O          O       0.34255   0.23777   0.41822  -0.51981
O          O       0.66055   0.77153   0.43308  -0.52148
O          O       0.73830   0.34241   0.18298  -0.52458
O          O       0.27105   0.65767   0.18193  -0.52243
O          O       0.15401   0.22910   0.31646  -0.51907
O          O       0.84726   0.76191   0.32475  -0.51898
O          O       0.47637   0.25219   0.11686  -0.85146
O          O       0.52405   0.74747   0.13018  -0.85017
O          O       0.25216   0.52331   0.87479  -0.85030
O          O       0.74270   0.47652   0.87987  -0.85022
O          O       0.01896   0.25007   0.62059  -0.85071
O          O       0.98178   0.75251   0.63097  -0.84889
O          O       0.76587   0.01929   0.37204  -0.85104
O          O       0.25253   0.98086   0.36804  -0.85146

