data_crystal

_cell_length_a 11.45810
_cell_length_b 11.68190
_cell_length_c 11.86960
_cell_angle_alpha 64.13200
_cell_angle_beta  81.20200
_cell_angle_gamma 72.66300

_symmetry_space_group_name_	'P 1'
_symmetry_space_group_name_H-M	'P 1'

loop_
_symmetry_equiv_pos_as_xyz
  x,y,z

loop_
_atom_site_label
_atom_site_type_symbol
_atom_site_fract_x
_atom_site_fract_y
_atom_site_fract_z
_atom_site_charge
Zn	Zn	-0.00000 0.00000 0.50000 1.12200
Zn	Zn	-0.00000 0.50000 0.50000 1.14300
Zn	Zn	-0.00000 0.00000 -0.00000 1.05800
H 	H 	0.77980 0.99930 0.68800 0.23900
H 	H 	0.64010 0.40190 0.36740 0.04900
H 	H 	0.58190 0.11710 0.69960 0.00100
H 	H 	0.20840 0.37220 0.69980 -0.03600
H 	H 	0.83640 0.27620 0.36620 0.06300
H 	H 	0.41630 0.27710 0.71480 0.08700
H 	H 	0.44170 0.44190 0.33910 0.07800
H 	H 	0.23380 0.52980 0.33630 -0.02100
H 	H 	0.53960 0.19440 0.95140 0.07500
H 	H 	0.84110 0.81370 0.03160 0.04000
H 	H 	0.64390 0.80770 0.03470 0.05900
H 	H 	0.74040 0.19000 0.94570 0.03400
H 	H 	0.22020 0.00070 0.31200 -0.25300
H 	H 	0.35990 0.59810 0.63260 0.10800
H 	H 	0.41810 0.88290 0.30040 0.17100
H 	H 	0.79160 0.62780 0.30020 0.03700
H 	H 	0.16360 0.72380 0.63380 -0.02400
H 	H 	0.58370 0.72290 0.28520 0.06300
H 	H 	0.55830 0.55810 0.66090 0.07800
H 	H 	0.76620 0.47020 0.66370 0.03000
H 	H 	0.46040 0.80560 0.04860 0.07400
H 	H 	0.15890 0.18630 0.96840 -0.02400
H 	H 	0.35610 0.19230 0.96530 0.09200
H 	H 	0.25960 0.81000 0.05430 -0.02900
C 	C 	0.75080 0.08060 0.62230 -0.22200
C 	C 	0.02330 0.22050 0.61950 -0.15100
C 	C 	0.03960 0.96680 0.76660 0.49300
C 	C 	0.45330 0.34370 0.52750 0.09900
C 	C 	0.66570 0.31960 0.43300 -0.05000
C 	C 	0.63130 0.15060 0.62980 0.05200
C 	C 	0.25580 0.38420 0.62660 0.08800
C 	C 	0.05150 0.24760 0.48390 0.31300
C 	C 	0.01960 0.11130 0.72980 -0.32200
C 	C 	0.58540 0.27240 0.53140 -0.04100
C 	C 	0.78400 0.24330 0.43310 0.02700
C 	C 	0.38120 0.32640 0.63660 -0.16900
C 	C 	0.39630 0.42390 0.41390 -0.16700
C 	C 	0.27090 0.47690 0.41320 0.08900
C 	C 	0.56560 0.00060 0.99670 0.01800
C 	C 	0.59920 0.11520 0.96840 -0.10200
C 	C 	0.77950 0.89130 0.01520 0.06500
C 	C 	0.66090 0.88660 0.01830 -0.10200
C 	C 	0.72030 0.11170 0.96550 0.07100
C 	C 	0.24920 0.91940 0.37770 0.43400
C 	C 	0.97670 0.77950 0.38050 0.06600
C 	C 	0.96040 0.03320 0.23340 0.18800
C 	C 	0.54670 0.65630 0.47250 0.01200
C 	C 	0.33430 0.68040 0.56700 -0.20400
C 	C 	0.36870 0.84940 0.37020 -0.33500
C 	C 	0.74420 0.61580 0.37340 0.06700
C 	C 	0.94850 0.75240 0.51610 0.31400
C 	C 	0.98040 0.88870 0.27020 0.20000
C 	C 	0.41460 0.72760 0.46860 0.16400
C 	C 	0.21600 0.75670 0.56690 0.12400
C 	C 	0.61880 0.67360 0.36340 -0.09300
C 	C 	0.60370 0.57610 0.58610 -0.08800
C 	C 	0.72910 0.52310 0.58680 0.06800
C 	C 	0.43440 0.99940 0.00330 0.09000
C 	C 	0.40080 0.88480 0.03160 -0.16200
C 	C 	0.22050 0.10870 0.98480 0.08800
C 	C 	0.33910 0.11340 0.98170 -0.16300
C 	C 	0.27970 0.88830 0.03450 0.08900
N 	N 	0.99680 0.32400 0.65050 -0.05800
N 	N 	0.82680 0.12420 0.52510 -0.14200
N 	N 	0.20040 0.45590 0.51720 -0.25900
N 	N 	0.97660 0.28290 0.77350 -0.00500
N 	N 	0.99070 0.15370 0.82250 -0.02600
N 	N 	0.81130 0.00140 0.98980 -0.18700
N 	N 	0.00320 0.67600 0.34950 -0.30800
N 	N 	0.17320 0.87580 0.47490 -0.29800
N 	N 	0.79960 0.54410 0.48280 -0.18800
N 	N 	0.02340 0.71710 0.22650 -0.09600
N 	N 	0.00930 0.84630 0.17750 -0.30300
N 	N 	0.18870 0.99860 0.01020 -0.24600
O 	O 	0.08360 0.15490 0.44960 -0.47800
O 	O 	0.04370 0.36720 0.41150 -0.47700
O 	O 	0.04360 0.92220 0.68830 -0.43800
O 	O 	0.05210 0.89570 0.88350 -0.38800
O 	O 	0.91640 0.84510 0.55040 -0.27600
O 	O 	0.95630 0.63280 0.58850 -0.29800
O 	O 	0.95640 0.07780 0.31170 -0.33000
O 	O 	0.94790 0.10430 0.11650 -0.36100
