data_crystal

_audit_creation_method 'AiiDA-DDEC plugin'

_cell_length_a        15.44269
_cell_length_b        18.04219
_cell_length_c        21.81480

_cell_angle_alpha     114.48041
_cell_angle_beta     110.70809
_cell_angle_gamma     90.01543

_symmetry_space_group_name_Hall 'P 1'
_symmetry_space_group_name_H-M  'P 1'

loop_
_symmetry_equiv_pos_as_xyz
 'x,y,z'

loop_
_atom_site_label
_atom_site_type_symbol
_atom_site_fract_x
_atom_site_fract_y
_atom_site_fract_z
_atom_site_charge
Cu         Cu      0.36779   0.15142   0.73455   0.12026
Cu         Cu      0.63219   0.84835   0.26544   0.11663
Cu         Cu      0.33722   0.24402   0.67344   0.11546
Cu         Cu      0.66236   0.75255   0.32520   0.11125
Cu         Cu      0.60646   0.34439   0.21511   0.09476
Cu         Cu      0.39023   0.65494   0.78371   0.09379
Cu         Cu      0.38608   0.10237   0.60851   0.11031
Cu         Cu      0.77467   0.88883   0.38676   0.11579
Cu         Cu      0.61103   0.88895   0.38657   0.11576
Cu         Cu      0.51571   0.21898   0.19903   0.11043
Cu         Cu      0.31648   0.78097   0.80069   0.10791
Cu         Cu      0.48440   0.78089   0.80132   0.11005
Cu         Cu      0.68366   0.22011   0.20020   0.11073
Cu         Cu      0.86641   0.58184   0.73349   0.11781
Cu         Cu      0.83520   0.42621   0.67299   0.11094
Cu         Cu      0.89194   0.12958   0.78462   0.09550
Cu         Cu      0.72377   0.50293   0.61296   0.11565
Cu         Cu      0.88703   0.50050   0.61198   0.11553
Cu         Cu      0.81755   0.01896   0.79948   0.10872
Cu         Cu      0.13044   0.41699   0.26595   0.12024
Cu         Cu      0.16414   0.57108   0.32774   0.11683
Cu         Cu      0.10816   0.87053   0.21616   0.09439
Cu         Cu      0.18241   0.98079   0.20003   0.10817
Cu         Cu      0.54539   0.22557   0.09014   0.11752
Cu         Cu      0.45459   0.77423   0.90994   0.11755
Cu         Cu      0.22087   0.10310   0.60963   0.11046
Cu         Cu      0.95649   0.13631   0.90979   0.12098
Cu         Cu      0.98270   0.01927   0.79826   0.10828
Cu         Cu      0.04362   0.86329   0.09001   0.11982
Cu         Cu      0.11260   0.49293   0.39136   0.10791
Cu         Cu      0.27744   0.49263   0.39085   0.11064
Cu         Cu      0.01703   0.98063   0.20096   0.10703
H          H       0.55891   0.16082   0.84656   0.08162
H          H       0.71213   0.83939   0.15429   0.08185
H          H       0.44139   0.83947   0.15416   0.08166
H          H       0.28826   0.16084   0.84639   0.08130
H          H       0.48817   0.06833   0.82339   0.08167
H          H       0.66437   0.93173   0.17747   0.08183
H          H       0.51250   0.93175   0.17731   0.08173
H          H       0.33570   0.06832   0.82322   0.08077
H          H       0.55158   0.09357   0.94741   0.08032
H          H       0.60448   0.90687   0.05362   0.08132
H          H       0.44870   0.90678   0.05344   0.08158
H          H       0.39606   0.09347   0.94720   0.08160
H          H       0.62078   0.18714   0.97085   0.08213
H          H       0.65017   0.81325   0.03004   0.08231
H          H       0.37954   0.81310   0.02986   0.08250
H          H       0.35013   0.18694   0.97061   0.08219
H          H       0.38561   0.35980   0.61552   0.08558
H          H       0.76926   0.63789   0.38328   0.08701
H          H       0.61383   0.63793   0.38337   0.08702
H          H       0.22994   0.35932   0.61545   0.08544
H          H       0.48328   0.37650   0.69610   0.08378
H          H       0.78661   0.62198   0.30296   0.08401
H          H       0.51610   0.62197   0.30306   0.08282
H          H       0.21283   0.37578   0.69597   0.08335
H          H       0.49759   0.47785   0.26626   0.08515
H          H       0.23033   0.51974   0.73222   0.08242
H          H       0.50122   0.52049   0.73253   0.08213
H          H       0.76829   0.47774   0.26610   0.08545
H          H       0.59745   0.49273   0.34498   0.08961
H          H       0.25009   0.50450   0.65289   0.08339
H          H       0.40233   0.50504   0.65306   0.08319
H          H       0.74727   0.49267   0.34489   0.08955
H          H       0.38223   0.28834   0.87902   0.08842
H          H       0.50290   0.71114   0.12100   0.08810
H          H       0.61776   0.71136   0.12100   0.08834
H          H       0.49712   0.28854   0.87902   0.08894
H          H       0.55933   0.31331   0.00321   0.08727
H          H       0.55556   0.68676   0.99687   0.08797
H          H       0.44077   0.68698   0.99701   0.08737
H          H       0.44454   0.31356   0.00335   0.08703
H          H       0.34462   0.39536   0.80395   0.08838
H          H       0.53994   0.60350   0.19517   0.08726
H          H       0.65483   0.60358   0.19514   0.08815
H          H       0.45953   0.39559   0.80392   0.08833
H          H       0.63538   0.45877   0.15602   0.08798
H          H       0.47826   0.54022   0.84207   0.08783
H          H       0.36354   0.54004   0.84229   0.08737
H          H       0.52047   0.45874   0.15597   0.08821
H          H       0.78703   0.68538   0.84502   0.08067
H          H       0.05794   0.68570   0.84551   0.08112
H          H       0.83513   0.75529   0.82273   0.08092
H          H       0.98759   0.75557   0.82308   0.08115
H          H       0.89551   0.85327   0.94702   0.08041
H          H       0.05112   0.85346   0.94747   0.08098
H          H       0.84894   0.78269   0.96961   0.08202
H          H       0.11977   0.78271   0.97012   0.08280
H          H       0.72958   0.25326   0.61601   0.08731
H          H       0.88561   0.25350   0.61595   0.08736
H          H       0.71241   0.31835   0.69630   0.08355
H          H       0.98292   0.31877   0.69628   0.08427
H          H       0.00206   0.21215   0.73390   0.08493
H          H       0.73132   0.21174   0.73392   0.08484
H          H       0.90234   0.14759   0.65537   0.08956
H          H       0.75267   0.14740   0.65540   0.08934
H          H       0.69994   0.85537   0.87790   0.09568
H          H       0.67862   0.02361   0.87694   0.09703
H          H       0.62076   0.92118   0.90201   0.08444
H          H       0.78208   0.98235   0.90110   0.08540
H          H       0.58347   0.76491   0.68627   0.09502
H          H       0.60138   0.92087   0.68551   0.09196
H          H       0.65740   0.74751   0.76062   0.08774
H          H       0.60287   0.01291   0.76030   0.08660
H          H       0.50590   0.94261   0.79070   0.08030
H          H       0.78463   0.84818   0.79043   0.08061
H          H       0.47824   0.86127   0.70261   0.08572
H          H       0.72386   0.83996   0.70188   0.08646
H          H       0.99582   0.58977   0.87698   0.08844
H          H       0.88093   0.58959   0.87688   0.08770
H          H       0.94317   0.68794   0.00153   0.08841
H          H       0.05801   0.68837   0.00138   0.08878
H          H       0.95883   0.40885   0.80344   0.08761
H          H       0.84409   0.40892   0.80367   0.08690
H          H       0.86428   0.30423   0.84390   0.08863
H          H       0.97913   0.30424   0.84377   0.08841
H          H       0.94026   0.31341   0.15287   0.08099
H          H       0.21169   0.31505   0.15459   0.08192
H          H       0.01090   0.24390   0.17571   0.08069
H          H       0.16395   0.24501   0.17693   0.08133
H          H       0.94833   0.14580   0.05137   0.08032
H          H       0.10420   0.14665   0.05270   0.08055
H          H       0.87940   0.21618   0.02831   0.08156
H          H       0.15089   0.21721   0.03015   0.08210
H          H       0.11481   0.74547   0.38510   0.08623
H          H       0.27096   0.74549   0.38503   0.08618
H          H       0.01743   0.68073   0.30456   0.08403
H          H       0.28778   0.68082   0.30446   0.08390
H          H       0.26934   0.78785   0.26746   0.08260
H          H      -0.00135   0.78761   0.26746   0.08239
H          H       0.24935   0.85235   0.34659   0.08374
H          H       0.09764   0.85231   0.34659   0.08348
H          H       0.30032   0.14534   0.12238   0.09663
H          H       0.32139   0.97681   0.12277   0.09637
H          H       0.37956   0.07964   0.09827   0.08474
H          H       0.21797   0.01817   0.09863   0.08498
H          H       0.41600   0.23562   0.31395   0.09175
H          H       0.39788   0.07940   0.31429   0.09497
H          H       0.34220   0.25266   0.23930   0.08713
H          H       0.39685   0.98732   0.23976   0.08798
H          H       0.49391   0.05770   0.20942   0.08025
H          H       0.21506   0.15205   0.20952   0.08055
H          H       0.52158   0.13883   0.29764   0.08621
H          H       0.27577   0.15984   0.29791   0.08592
H          H       0.11805   0.41000   0.12240   0.08844
H          H       0.00289   0.40984   0.12179   0.08915
H          H       0.94131   0.31086   0.99740   0.08729
H          H       0.05637   0.31166   0.99769   0.08805
H          H       0.15631   0.59127   0.19710   0.08785
H          H       0.04146   0.59126   0.19716   0.08758
H          H       0.02174   0.69673   0.15789   0.08768
H          H       0.13653   0.69675   0.15778   0.08861
H          H       0.17801   0.85531   0.87759   0.09579
H          H       0.19846   0.02355   0.87659   0.09671
H          H       0.28119   0.92109   0.90151   0.08478
H          H       0.11909   0.98239   0.90081   0.08510
H          H       0.10250   0.76484   0.68585   0.09500
H          H       0.08411   0.92078   0.68515   0.09154
H          H       0.10303   0.74759   0.76033   0.08812
H          H       0.15738   0.01289   0.75986   0.08622
H          H       0.28467   0.94271   0.79049   0.08052
H          H       0.00569   0.84833   0.79019   0.08006
H          H       0.22453   0.86142   0.70227   0.08611
H          H       0.97792   0.84009   0.70166   0.08669
H          H       0.82182   0.14559   0.12276   0.09643
H          H       0.80114   0.97702   0.12312   0.09573
H          H       0.71857   0.07993   0.09884   0.08466
H          H       0.88039   0.01836   0.09890   0.08507
H          H       0.89825   0.23579   0.31441   0.09174
H          H       0.91641   0.07957   0.31460   0.09466
H          H       0.89725   0.25270   0.23964   0.08675
H          H       0.84293   0.98744   0.24017   0.08737
H          H       0.71558   0.05771   0.20964   0.08048
H          H       0.99452   0.15202   0.20978   0.08074
H          H       0.77584   0.13872   0.29804   0.08660
H          H       0.02213   0.15978   0.29812   0.08620
H          H       0.34121   0.01444   0.44303   0.08123
H          H       0.42479   0.10356   0.48016   0.09279
H          H       0.15783   0.57153   0.55730   0.08094
H          H       0.07431   0.62361   0.52045   0.09234
H          H       0.05445   0.10338   0.47998   0.09261
H          H       0.10109   0.01427   0.44310   0.08146
H          H       0.44467   0.62342   0.51962   0.09250
H          H       0.39773   0.57138   0.55643   0.07977
H          H       0.86674   0.06174   0.50725   0.08563
H          H       0.88186   0.99394   0.54894   0.08013
H          H       0.63221   0.55422   0.49247   0.08571
H          H       0.61694   0.44464   0.45072   0.08093
H          H       0.66611   0.99426   0.54917   0.07989
H          H       0.63991   0.06222   0.50767   0.08642
H          H       0.83284   0.44434   0.45008   0.08093
H          H       0.85943   0.55389   0.49226   0.08602
H          H       0.47095   0.94046   0.57486   0.08905
H          H       0.36968   0.91905   0.49595   0.08768
H          H       0.02899   0.36553   0.42461   0.08919
H          H       0.12994   0.42329   0.50373   0.08790
H          H      -0.00123   0.62575   0.59867   0.08359
H          H       0.08095   0.57032   0.63338   0.08921
H          H       0.56542   0.13366   0.58845   0.09310
H          H       0.58677   0.06257   0.62607   0.09156
H          H       0.93374   0.54500   0.41152   0.09406
H          H       0.91283   0.43615   0.37368   0.09131
H          H       0.03800   0.06228   0.62595   0.09135
H          H       0.02170   0.13346   0.58838   0.09342
H          H       0.46088   0.43598   0.37363   0.09144
H          H       0.47738   0.54485   0.41126   0.09343
H          H       0.94567   0.87083   0.50173   0.08958
H          H       0.97012   0.84483   0.42254   0.09212
H          H       0.55288   0.36882   0.49739   0.08981
H          H       0.52838   0.42171   0.57663   0.09224
H          H       0.45231   0.84490   0.42268   0.09210
H          H       0.55584   0.87140   0.50197   0.08975
H          H       0.04717   0.42148   0.57658   0.09285
H          H       0.94390   0.36823   0.49707   0.08993
H          H       0.12571   0.91932   0.49601   0.08895
H          H       0.10324   0.94040   0.57485   0.08903
H          H       0.37285   0.42302   0.50323   0.08749
H          H       0.39545   0.36537   0.42441   0.08832
H          H       0.94819   0.93721   0.36640   0.08902
H          H       0.90072   0.02750   0.40113   0.08448
H          H       0.55047   0.57089   0.63317   0.08900
H          H       0.59815   0.62628   0.59850   0.08382
H          H       0.49969   0.02790   0.40126   0.08455
H          H       0.41766   0.93749   0.36646   0.08882
C          C       0.44664   0.26249   0.89283  -0.09176
C          C       0.55345   0.73736   0.10735  -0.09133
C          C       0.48722   0.27881   0.97401  -0.09014
C          C       0.51291   0.72142   0.02628  -0.09087
C          C       0.50852   0.13467   0.86038  -0.09856
C          C       0.64792   0.86543   0.14037  -0.09896
C          C       0.49183   0.86544   0.14028  -0.09836
C          C       0.35236   0.13465   0.86026  -0.09680
C          C       0.54936   0.15124   0.94168  -0.09542
C          C       0.60775   0.84905   0.05910  -0.09659
C          C       0.45094   0.84901   0.05899  -0.09751
C          C       0.39255   0.15117   0.94154  -0.09870
C          C       0.39236   0.41579   0.78468  -0.09010
C          C       0.60691   0.58292   0.21414  -0.09021
C          C       0.59420   0.48860   0.18861  -0.09215
C          C       0.40460   0.51009   0.80962  -0.09197
C          C       0.41687   0.03800   0.46787  -0.10121
C          C       0.05016   0.03789   0.46785  -0.10055
C          C       0.91287   0.02097   0.52309  -0.10048
C          C       0.60938   0.02135   0.52330  -0.10068
C          C       0.44521   0.94390   0.52259  -0.09135
C          C       0.07670   0.94390   0.52258  -0.09297
C          C       0.94958   0.98835   0.41683  -0.09951
C          C       0.46660   0.98865   0.41692  -0.09783
C          C       0.55848   0.06759   0.57446  -0.09740
C          C       0.01478   0.06739   0.57436  -0.09843
C          C       0.97459   0.89628   0.47387  -0.09173
C          C       0.49879   0.89654   0.47396  -0.09262
C          C       0.41592   0.39561   0.67523  -0.09628
C          C       0.74000   0.60249   0.32354  -0.09640
C          C       0.58331   0.60253   0.32363  -0.09492
C          C       0.25921   0.39517   0.67516  -0.09615
C          C       0.57129   0.50793   0.29860  -0.09892
C          C       0.27145   0.48974   0.69961  -0.09756
C          C       0.42763   0.49021   0.69974  -0.09709
C          C       0.72699   0.50786   0.29850  -0.09781
C          C       0.94535   0.62950   0.89104  -0.09166
C          C       0.98592   0.69388   0.97242  -0.09166
C          C       0.85139   0.72540   0.85925  -0.09517
C          C       0.00761   0.72561   0.85953  -0.09573
C          C       0.89165   0.78968   0.94082  -0.09687
C          C       0.04849   0.78981   0.94115  -0.09806
C          C       0.89206   0.36918   0.78485  -0.08981
C          C       0.90529   0.30101   0.81111  -0.09197
C          C       0.44872   0.57005   0.53172  -0.09738
C          C       0.58593   0.49758   0.47651  -0.10166
C          C       0.42199   0.42109   0.47680  -0.09053
C          C       0.54916   0.57145   0.58275  -0.09740
C          C       0.48410   0.49280   0.42523  -0.09685
C          C       0.52399   0.42210   0.52545  -0.09227
C          C       0.65473   0.89715   0.86303  -0.09634
C          C       0.70898   0.96691   0.86241  -0.10323
C          C       0.63369   0.79565   0.74332  -0.09523
C          C       0.60917   0.94740   0.74282  -0.09629
C          C       0.53656   0.90036   0.75432  -0.10622
C          C       0.71752   0.85360   0.75387  -0.10689
C          C       0.75906   0.27824   0.67580  -0.09534
C          C       0.91588   0.27847   0.67574  -0.09644
C          C       0.92831   0.20949   0.70143  -0.09735
C          C       0.77259   0.20928   0.70147  -0.09851
C          C       0.05348   0.37010   0.10800  -0.09246
C          C       0.01340   0.30564   0.02663  -0.09039
C          C       0.99092   0.27372   0.13915  -0.09664
C          C       0.14754   0.27464   0.14021  -0.09902
C          C       0.95068   0.20942   0.05764  -0.09591
C          C       0.10794   0.21019   0.05875  -0.09555
C          C       0.10839   0.63093   0.21614  -0.08938
C          C       0.09551   0.69966   0.19050  -0.09201
C          C       0.34543   0.10344   0.13715  -0.09873
C          C       0.29102   0.03350   0.13740  -0.10128
C          C       0.36601   0.20467   0.25680  -0.09658
C          C       0.39044   0.05279   0.25707  -0.09535
C          C       0.46327   0.09989   0.24586  -0.10613
C          C       0.28215   0.14649   0.24600  -0.10548
C          C       0.08463   0.72095   0.32534  -0.09715
C          C       0.24134   0.72098   0.32527  -0.09564
C          C       0.22838   0.79055   0.30019  -0.09993
C          C       0.07235   0.79047   0.30022  -0.09877
C          C       0.20822   0.89709   0.86262  -0.09728
C          C       0.15348   0.96691   0.86209  -0.10178
C          C       0.10942   0.79565   0.74295  -0.09449
C          C       0.13367   0.94737   0.74244  -0.09528
C          C       0.21773   0.90039   0.75394  -0.10485
C          C       0.03626   0.85367   0.75359  -0.10690
C          C       0.79161   0.10372   0.13762  -0.09770
C          C       0.84618   0.03369   0.13773  -0.10082
C          C       0.89092   0.20478   0.25720  -0.09699
C          C       0.86656   0.05293   0.25743  -0.09386
C          C       0.78255   0.09999   0.24626  -0.10679
C          C       0.96384   0.14652   0.24626  -0.10550
C          C       0.08218   0.57010   0.53235  -0.09837
C          C       0.88976   0.49730   0.47627  -0.10318
C          C       0.05436   0.42116   0.47703  -0.09319
C          C       0.03217   0.57104   0.58294  -0.09893
C          C       0.94082   0.49284   0.42536  -0.09788
C          C       0.00062   0.42177   0.52535  -0.09323
I          I       0.32279   0.98957   0.64697  -0.28597
I          I       0.67914   0.01039   0.35886  -0.28729
I          I       0.26424   0.17451   0.52966  -0.29535
I          I       0.73484   0.82374   0.47119  -0.29224
I          I       0.52082   0.22653   0.73103  -0.30410
I          I       0.79010   0.77002   0.26651  -0.30043
I          I       0.47595   0.76967   0.26656  -0.29973
I          I       0.21024   0.22673   0.73151  -0.30500
I          I       0.41059   0.30695   0.13445  -0.29919
I          I       0.27618   0.69266   0.86530  -0.29885
I          I       0.58815   0.69244   0.86513  -0.30178
I          I       0.72351   0.30682   0.13459  -0.29952
I          I       0.81950   0.65035   0.63959  -0.28745
I          I       0.76273   0.35160   0.52742  -0.29300
I          I       0.95176   0.98368   0.90298  -0.26641
I          I       0.83511   0.97512   0.67089  -0.26395
I          I       0.70873   0.50310   0.73271  -0.29823
I          I       0.77707   0.17206   0.86537  -0.30128
I          I       0.17610   0.34181   0.35284  -0.28337
I          I       0.23477   0.64497   0.47110  -0.29698
I          I       0.04770   0.01543   0.09601  -0.26566
I          I       0.16430   0.02602   0.32816  -0.24808
I          I       0.28915   0.49522   0.26913  -0.30594
I          I       0.22263   0.82756   0.13459  -0.30260
I          I       0.54841   0.07986   0.09692  -0.26533
I          I       0.45191   0.92027   0.90392  -0.26438
I          I       0.66310   0.30294   0.32780  -0.26570
I          I       0.33702   0.69929   0.67296  -0.25049
I          I       0.02267   0.50320   0.73270  -0.30015
I          I       0.08909   0.17216   0.86458  -0.29919
I          I       0.97892   0.49645   0.26919  -0.30446
I          I       0.91129   0.82761   0.13551  -0.30048
N          N       0.42227   0.17193   0.84388  -0.04896
N          N       0.57798   0.82794   0.15665  -0.04607
N          N       0.35177   0.37071   0.70342  -0.05172
N          N       0.64760   0.62742   0.29549  -0.04920
N          N       0.62628   0.46994   0.25291  -0.04359
N          N       0.37210   0.52840   0.74504  -0.04478
N          N       0.45602   0.03300   0.53885  -0.05263
N          N       0.91143   0.95236   0.45432  -0.05044
N          N       0.54225   0.95275   0.45443  -0.05093
N          N       0.92109   0.67157   0.84246  -0.05113
N          N       0.85124   0.33144   0.70346  -0.05077
N          N       0.87335   0.21760   0.74721  -0.04397
N          N       0.58720   0.49786   0.54522  -0.05046
N          N       0.58203   0.84571   0.78797  -0.05667
N          N       0.70582   0.94210   0.78695  -0.05236
N          N       0.07731   0.32798   0.15646  -0.04917
N          N       0.14906   0.66793   0.29745  -0.05296
N          N       0.12761   0.78298   0.25471  -0.04359
N          N       0.41797   0.15472   0.21236  -0.05499
N          N       0.29393   0.05803   0.21274  -0.05448
N          N       0.20575   0.84566   0.78751  -0.05622
N          N       0.79441   0.15499   0.21290  -0.05609
N          N       0.95673   0.49726   0.54497  -0.04889
N          N       0.48996   0.19926   0.97972  -0.05001
N          N       0.51027   0.80109   0.02082  -0.05034
N          N       0.08184   0.03301   0.53890  -0.05111
N          N       0.98888   0.77946   0.97889  -0.04947
N          N       0.41700   0.49398   0.46067  -0.05441
N          N       0.01070   0.22010   0.02031  -0.05155
N          N       0.08120   0.94213   0.78663  -0.05332
N          N       0.91865   0.05810   0.21300  -0.05436
N          N       0.04330   0.49420   0.46113  -0.04923

