data_crystal

_audit_creation_method 'AiiDA-DDEC plugin'

_cell_length_a         9.61137
_cell_length_b        10.29949
_cell_length_c         9.84448

_cell_angle_alpha     97.97786
_cell_angle_beta     114.00533
_cell_angle_gamma     110.87408

_symmetry_space_group_name_Hall 'P 1'
_symmetry_space_group_name_H-M  'P 1'

loop_
_symmetry_equiv_pos_as_xyz
 'x,y,z'

loop_
_atom_site_label
_atom_site_type_symbol
_atom_site_fract_x
_atom_site_fract_y
_atom_site_fract_z
_atom_site_charge
Zn         Zn      0.43225   0.59254   0.78062   0.93604
Zn         Zn      0.56775   0.40746   0.21938   0.93605
Zn         Zn      0.50000   0.50000   0.50000   1.05969
H          H       0.20219   0.07328   0.39584   0.11488
H          H       0.00896   0.19115   0.69246   0.11636
H          H       0.85546   0.55205   0.14479   0.11840
H          H       0.91503   0.52485   0.73369   0.12978
H          H       0.36569   0.73955   0.32991   0.11382
H          H       0.57214   0.05552   0.78158   0.12984
H          H       0.79781   0.92672   0.60416   0.11485
H          H       0.99104   0.80885   0.30754   0.11638
H          H       0.14454   0.44795   0.85521   0.11843
H          H       0.08497   0.47515   0.26630   0.12971
H          H       0.63431   0.26045   0.67009   0.11384
H          H       0.42786   0.94448   0.21842   0.12986
C          C       0.24769   0.30457   0.60411   0.59862
C          C       0.11857   0.14781   0.54962  -0.03127
C          C       0.11343   0.03997   0.44070  -0.08771
C          C       0.00423   0.10702   0.60833  -0.09366
C          C       0.72802   0.57879   0.85463   0.59038
C          C       0.87141   0.54209   0.93198  -0.03044
C          C       0.91822   0.52758   0.08188  -0.10736
C          C       0.95402   0.51467   0.85038  -0.08808
C          C       0.43377   0.76460   0.62795   0.58078
C          C       0.46481   0.88598   0.56172  -0.02404
C          C       0.42367   0.85362   0.40276  -0.08187
C          C       0.54119   0.03271   0.65884  -0.08861
C          C       0.75231   0.69543   0.39589   0.59864
C          C       0.88143   0.85219   0.45038  -0.03137
C          C       0.88657   0.96003   0.55930  -0.08767
C          C       0.99577   0.89298   0.39167  -0.09360
C          C       0.27198   0.42122   0.14537   0.59041
C          C       0.12859   0.45791   0.06801  -0.03049
C          C       0.08178   0.47242   0.91812  -0.10735
C          C       0.04598   0.48533   0.14962  -0.08805
C          C       0.56623   0.23540   0.37205   0.58072
C          C       0.53519   0.11403   0.43827  -0.02399
C          C       0.57633   0.14638   0.59724  -0.08199
C          C       0.45881   0.96729   0.34116  -0.08864
O          O       0.36251   0.33519   0.56453  -0.56851
O          O       0.23603   0.40062   0.69337  -0.53895
O          O       0.70092   0.60717   0.72728  -0.57871
O          O       0.63615   0.57737   0.92090  -0.53492
O          O       0.38008   0.63221   0.54436  -0.58812
O          O       0.46290   0.79239   0.77146  -0.51647
O          O       0.63749   0.66481   0.43547  -0.56853
O          O       0.76397   0.59939   0.30663  -0.53892
O          O       0.29908   0.39283   0.27271  -0.57877
O          O       0.36385   0.42263   0.07909  -0.53490
O          O       0.61992   0.36779   0.45563  -0.58813
O          O       0.53710   0.20762   0.22854  -0.51636

