data_crystal

_audit_creation_method 'AiiDA-DDEC plugin'

_cell_length_a        14.76190
_cell_length_b        14.80147
_cell_length_c        14.76539

_cell_angle_alpha     59.84578
_cell_angle_beta     60.04729
_cell_angle_gamma     59.81310

_symmetry_space_group_name_Hall 'P 1'
_symmetry_space_group_name_H-M  'P 1'

loop_
_symmetry_equiv_pos_as_xyz
 'x,y,z'

loop_
_atom_site_label
_atom_site_type_symbol
_atom_site_fract_x
_atom_site_fract_y
_atom_site_fract_z
_atom_site_charge
Zr         Zr      0.37986   0.37998   0.61969   2.38565
Zr         Zr      0.61956   0.61818   0.38076   2.38532
Zr         Zr      0.38030   0.61879   0.61921   2.38438
Zr         Zr      0.61881   0.37974   0.38013   2.38363
Zr         Zr      0.38002   0.61956   0.37952   2.38462
Zr         Zr      0.62018   0.37843   0.61932   2.38366
H          H       0.07242   0.65597   0.90348   0.12140
H          H       0.62309   0.10242   0.34143   0.12069
H          H       0.94317   0.33091   0.11272   0.12158
H          H       0.36432   0.90317   0.65538   0.12087
H          H       0.09675   0.92649   0.34034   0.12190
H          H       0.62806   0.33654   0.93380   0.12216
H          H       0.93039   0.09853   0.62842   0.12195
H          H       0.34900   0.64212   0.08710   0.12259
H          H       0.10435   0.33846   0.62722   0.12266
H          H       0.65001   0.90643   0.08170   0.12108
H          H       0.91819   0.63877   0.34970   0.12280
H          H       0.32919   0.11601   0.94324   0.12051
H          H       0.32816   0.94507   0.11425   0.12127
H          H       0.93320   0.33702   0.62906   0.12187
H          H       0.65152   0.07701   0.91065   0.12166
H          H       0.08977   0.63931   0.34732   0.12184
H          H       0.10138   0.92752   0.62819   0.12268
H          H       0.62759   0.33974   0.10311   0.12220
H          H       0.92668   0.09807   0.34005   0.12161
H          H       0.34879   0.63869   0.91824   0.12190
H          H       0.62306   0.93355   0.33921   0.12227
H          H       0.11094   0.33352   0.93948   0.12050
H          H       0.36388   0.07206   0.65747   0.12123
H          H       0.90326   0.65428   0.07529   0.12097
H          H       0.21694   0.59493   0.59353   0.42560
H          H       0.59544   0.21646   0.59353   0.42604
H          H       0.59680   0.58921   0.59500   0.42578
H          H       0.59344   0.59277   0.21744   0.42550
C          C       0.04335   0.58542   0.95007  -0.09563
C          C       0.56738   0.05768   0.40977  -0.09324
C          C       0.97216   0.40149   0.06590  -0.09549
C          C       0.42064   0.94734   0.58730  -0.09574
C          C       0.05999   0.96531   0.40237  -0.09656
C          C       0.56764   0.40289   0.96797  -0.09448
C          C       0.96808   0.06023   0.56581  -0.09566
C          C       0.40930   0.57584   0.05271  -0.09375
C          C       0.06261   0.40339   0.56723  -0.09376
C          C       0.58028   0.95367   0.05070  -0.09763
C          C       0.95992   0.57350   0.40965  -0.09338
C          C       0.39868   0.06940   0.97455  -0.09456
C          C       0.39801   0.97514   0.06904  -0.09457
C          C       0.96818   0.40267   0.56821  -0.09448
C          C       0.58108   0.04779   0.95615  -0.09526
C          C       0.05449   0.57399   0.40857  -0.09618
C          C       0.06235   0.96578   0.56570  -0.09390
C          C       0.56743   0.40455   0.06150  -0.09423
C          C       0.96586   0.05995   0.40238  -0.09562
C          C       0.40942   0.57403   0.95929  -0.09624
C          C       0.56742   0.96423   0.40856  -0.09568
C          C       0.06523   0.40270   0.97054  -0.09446
C          C       0.42034   0.04103   0.58840  -0.09588
C          C       0.94999   0.58439   0.04515  -0.09646
C          C       0.19885   0.49748   0.80756   0.63317
C          C       0.10087   0.49499   0.91164  -0.03601
C          C       0.49543   0.19689   0.49987   0.63046
C          C       0.49409   0.09666   0.49962  -0.03539
C          C       0.80856   0.49548   0.20029   0.63189
C          C       0.91295   0.49313   0.10267  -0.03401
C          C       0.49569   0.80618   0.49798   0.63293
C          C       0.49440   0.90802   0.49768  -0.03591
C          C       0.20308   0.81067   0.49085   0.63304
C          C       0.10744   0.91676   0.48527  -0.03671
C          C       0.49391   0.49130   0.81070   0.63232
C          C       0.48957   0.48850   0.91540  -0.03485
C          C       0.81152   0.20169   0.49152   0.63231
C          C       0.91814   0.10643   0.48541  -0.03504
C          C       0.49366   0.49635   0.19979   0.63328
C          C       0.48950   0.49192   0.10321  -0.03791
C          C       0.20205   0.49434   0.49231   0.63541
C          C       0.10523   0.48990   0.48848  -0.03625
C          C       0.49354   0.81011   0.20265   0.63407
C          C       0.48968   0.91584   0.10648  -0.03551
C          C       0.81059   0.49170   0.49499   0.63366
C          C       0.91541   0.48869   0.49045  -0.03767
C          C       0.49515   0.20125   0.81067   0.63300
C          C       0.49096   0.10509   0.91655  -0.03521
O          O       0.29744   0.56756   0.56642  -1.05778
O          O       0.56749   0.29692   0.56723  -1.05744
O          O       0.56663   0.56661   0.29789  -1.05774
O          O       0.56848   0.56445   0.56781  -1.05818
O          O       0.45016   0.64823   0.45009  -1.16332
O          O       0.64952   0.44876   0.44972  -1.16188
O          O       0.45040   0.44932   0.64836  -1.16240
O          O       0.44943   0.44959   0.44993  -1.16137
O          O       0.23684   0.42163   0.76705  -0.62250
O          O       0.42050   0.23474   0.57884  -0.62228
O          O       0.76628   0.57457   0.23796  -0.62314
O          O       0.57311   0.76644   0.42119  -0.62155
O          O       0.23992   0.76863   0.57073  -0.62050
O          O       0.41891   0.57068   0.76852  -0.62318
O          O       0.76837   0.23867   0.41754  -0.62409
O          O       0.57231   0.42027   0.23844  -0.62424
O          O       0.23853   0.57415   0.41772  -0.62200
O          O       0.41884   0.76900   0.23849  -0.61963
O          O       0.76939   0.41657   0.57445  -0.62279
O          O       0.57701   0.23550   0.76648  -0.62219
O          O       0.57372   0.76682   0.23966  -0.62344
O          O       0.76816   0.57118   0.42017  -0.62412
O          O       0.41848   0.24013   0.77040  -0.62181
O          O       0.23960   0.41935   0.57188  -0.62368
O          O       0.23892   0.76798   0.41726  -0.62200
O          O       0.41965   0.57682   0.23562  -0.62026
O          O       0.76938   0.23694   0.57218  -0.61965
O          O       0.57343   0.41616   0.76946  -0.62170
O          O       0.42013   0.76499   0.57636  -0.62385
O          O       0.23642   0.57650   0.76549  -0.62229
O          O       0.57229   0.23646   0.42213  -0.62180
O          O       0.76777   0.42027   0.23707  -0.61980

