data_crystal

_audit_creation_method 'AiiDA-DDEC plugin'

_cell_length_a        18.05562
_cell_length_b        19.00345
_cell_length_c        19.02311

_cell_angle_alpha     89.99078
_cell_angle_beta     90.04636
_cell_angle_gamma     90.04549

_symmetry_space_group_name_Hall 'P 1'
_symmetry_space_group_name_H-M  'P 1'

loop_
_symmetry_equiv_pos_as_xyz
 'x,y,z'

loop_
_atom_site_label
_atom_site_type_symbol
_atom_site_fract_x
_atom_site_fract_y
_atom_site_fract_z
_atom_site_charge
Ti         Ti      0.49580   0.79011   0.07159   2.10053
Ti         Ti      0.49646   0.20787   0.92886   2.07894
Ti         Ti      0.49806   0.92896   0.78945   2.08057
Ti         Ti      0.49853   0.07177   0.21033   2.10421
Ti         Ti      0.50297   0.92862   0.20761   2.08595
Ti         Ti      0.50164   0.07226   0.78988   2.08970
Ti         Ti      0.50132   0.79324   0.92846   2.08322
Ti         Ti      0.50087   0.20895   0.07196   2.08442
Ti         Ti      0.99719   0.29230   0.57186   2.08065
Ti         Ti      0.00024   0.57125   0.70626   2.07501
Ti         Ti      0.00218   0.42796   0.71004   2.09203
Ti         Ti     -0.00021   0.29279   0.42877   2.07943
Ti         Ti      0.00226   0.70797   0.42942   2.08190
Ti         Ti     -0.00003   0.42835   0.29109   2.08279
Ti         Ti      0.99687   0.57167   0.29041   2.10175
Ti         Ti     -0.00034   0.71229   0.57275   2.10222
H          H       0.69062   0.85202   0.69144   0.13153
H          H       0.31309   0.14732   0.30517   0.13939
H          H       0.30924   0.85186   0.69117   0.12694
H          H       0.68645   0.14703   0.30493   0.14016
H          H       0.30964   0.30854   0.85183   0.12731
H          H       0.31322   0.69469   0.14763   0.13766
H          H       0.31338   0.14713   0.69403   0.13995
H          H       0.68704   0.85146   0.30478   0.12812
H          H       0.68700   0.14898   0.69591   0.12970
H          H       0.30962   0.85214   0.30942   0.12832
H          H       0.30934   0.30917   0.14774   0.12986
H          H       0.68601   0.69464   0.85330   0.13445
H          H       0.68980   0.30910   0.14780   0.12857
H          H       0.31376   0.69468   0.85327   0.13596
H          H       0.18730   0.80472   0.35144   0.12859
H          H       0.80944   0.19088   0.64871   0.13009
H          H       0.80923   0.80932   0.35236   0.12907
H          H       0.81247   0.35119   0.19506   0.12659
H          H       0.18711   0.35138   0.19517   0.12642
H          H       0.18699   0.80366   0.64907   0.12723
H          H       0.81258   0.80398   0.64927   0.12727
H          H       0.81322   0.35318   0.80565   0.13305
H          H       0.18728   0.35083   0.80451   0.12465
H          H       0.81327   0.64767   0.19470   0.13772
H          H      -0.00095   0.42895   0.57356   0.42404
H          H      -0.00109   0.57164   0.42730   0.42322
H          H       0.00228   0.42936   0.42696   0.42339
H          H      -0.00052   0.57486   0.56996   0.42221
H          H       0.49912   0.92719   0.07145   0.42685
H          H       0.49956   0.07114   0.92665   0.42362
H          H       0.50227   0.92920   0.92653   0.42287
H          H       0.50044   0.07259   0.07307   0.42145
H          H       0.00014   0.61501   0.93523   0.13266
H          H       0.00012   0.06488   0.61356   0.13009
H          H       0.00017   0.07064   0.38753   0.13406
H          H       0.00008   0.93268   0.60908   0.13165
H          H       0.00016   0.38891   0.93011   0.14316
H          H       0.00034   0.61107   0.06730   0.13144
H          H       0.50016   0.11387   0.56358   0.13100
H          H       0.50035   0.43606   0.11343   0.13294
H          H       0.50028   0.43042   0.88749   0.13785
H          H       0.50042   0.56812   0.10911   0.12794
H          H       0.49994   0.10956   0.43147   0.12970
H          H       0.49989   0.88776   0.56927   0.13983
H          H       0.21559   0.13934   0.38671   0.31758
H          H       0.13850   0.19568   0.38616   0.31855
H          H       0.78325   0.14067   0.38772   0.31574
H          H       0.86053   0.19619   0.38647   0.31835
H          H       0.78426   0.61378   0.86290   0.31475
H          H       0.86156   0.61426   0.80638   0.32244
H          H       0.21614   0.61272   0.86176   0.31598
H          H       0.13844   0.61366   0.80586   0.32121
H          H       0.21571   0.61236   0.14029   0.31444
H          H       0.13828   0.61382   0.19611   0.31961
H          H       0.49913   0.53705   0.82342   0.32226
H          H       0.49952   0.62039   0.86420   0.33325
H          H       0.71600   0.35919   0.88884   0.31156
H          H       0.63866   0.30356   0.88651   0.31884
H          H       0.50030   0.82366   0.46268   0.32107
H          H       0.50021   0.86458   0.37946   0.33234
H          H       0.71416   0.63822   0.11419   0.31509
H          H       0.63745   0.69561   0.11453   0.32191
H          H      -0.00021   0.96411   0.32341   0.32238
H          H      -0.00007   0.88072   0.36402   0.33443
H          H       0.21346   0.13689   0.61449   0.32167
H          H       0.13695   0.19449   0.61459   0.32103
H          H       0.00065   0.32502   0.03628   0.32239
H          H       0.00011   0.36580   0.11963   0.33959
C          C       0.50007   0.34776   0.00020   0.61824
C          C       0.50017   0.65164  -0.00121   0.62139
C          C       0.50013   0.00041   0.65144   0.62509
C          C       0.49997  -0.00084   0.34838   0.62367
C          C       0.00002   0.50087   0.84765   0.61645
C          C      -0.00004   0.49962   0.15095   0.62378
C          C       0.00005   0.15275   0.50019   0.61632
C          C       0.00007   0.84962   0.49886   0.62822
C          C       0.00014   0.92694   0.49663  -0.16543
C          C       0.00034   0.07453   0.49995  -0.01650
C          C       0.00019   0.49824   0.07365  -0.17390
C          C       0.00001   0.50130   0.92596  -0.01066
C          C       0.49974   0.99703   0.42560  -0.16605
C          C       0.49992   0.00021   0.57319  -0.00595
C          C       0.50052   0.57426   0.99665  -0.17533
C          C       0.50050   0.42629  -0.00013  -0.00487
C          C       0.00022   0.96389   0.56111  -0.06784
C          C       0.00029   0.03972   0.43567  -0.22830
C          C       0.00024   0.56280   0.03651  -0.07493
C          C       0.00011   0.43716   0.96090  -0.22986
C          C       0.00012   0.56539   0.96369  -0.15842
C          C       0.00012   0.43336   0.03514   0.30442
C          C       0.00018   0.96535   0.43173   0.30400
C          C       0.00033   0.03670   0.56387  -0.14983
C          C       0.50052   0.53707   0.06106  -0.07727
C          C       0.50050   0.46128   0.93569  -0.23054
C          C       0.49982   0.93595   0.53836  -0.22597
C          C       0.49980   0.06154   0.46262  -0.07880
C          C       0.49980   0.93209   0.46407   0.30485
C          C       0.49991   0.06420   0.53534  -0.14967
C          C       0.50051   0.53569   0.93181   0.30392
C          C       0.50054   0.46424   0.06373  -0.14655
C          C       0.31761   0.22576   0.22484  -0.00742
C          C       0.68188   0.77495   0.77472  -0.00895
C          C       0.68194   0.22556   0.22478  -0.00897
C          C       0.31792   0.77468   0.77451  -0.01102
C          C       0.31773   0.22543   0.77446  -0.00862
C          C       0.68076   0.77350   0.22364  -0.17439
C          C       0.68051   0.22735   0.77645  -0.16981
C          C       0.31777   0.77509   0.22607  -0.01205
C          C       0.81781   0.27449   0.72558  -0.01111
C          C       0.18069   0.72388   0.27326  -0.17219
C          C       0.18098   0.27313   0.72317  -0.17180
C          C       0.81768   0.72603   0.27516  -0.01008
C          C       0.81918   0.27276   0.27552  -0.16928
C          C       0.18105   0.72304   0.72739  -0.17219
C          C       0.18056   0.27320   0.27596  -0.17478
C          C       0.81874   0.72302   0.72740  -0.16844
C          C       0.88986   0.69799   0.69932   0.65574
C          C       0.10984   0.30197   0.30105   0.65693
C          C       0.10987   0.69827   0.69936   0.65797
C          C       0.89001   0.30174   0.30043   0.65462
C          C       0.88975   0.69901   0.30235   0.65434
C          C       0.10988   0.30109   0.69836   0.65534
C          C       0.10961   0.69895   0.30160   0.65601
C          C       0.88979   0.30173   0.69857   0.65610
C          C       0.38969   0.80241   0.19913   0.65452
C          C       0.60950   0.19889   0.80162   0.65641
C          C       0.60970   0.80134   0.19843   0.65595
C          C       0.38966   0.19821   0.80150   0.65439
C          C       0.38993   0.80160   0.80172   0.65319
C          C       0.60981   0.19834   0.19821   0.65562
C          C       0.60983   0.80230   0.80145   0.65248
C          C       0.38980   0.19883   0.19794   0.65609
C          C       0.28475   0.19197   0.28154  -0.22476
C          C       0.71684   0.80721   0.71669  -0.14720
C          C       0.71493   0.19165   0.28136  -0.22315
C          C       0.28305   0.80705   0.71646  -0.14527
C          C       0.28310   0.28343   0.80712  -0.14646
C          C       0.71595   0.71445   0.19096   0.30768
C          C       0.71553   0.28667   0.80890   0.30353
C          C       0.28494   0.71827   0.19225  -0.22339
C          C       0.71658   0.28361   0.19215  -0.14713
C          C       0.28539   0.71781   0.80842  -0.22885
C          C       0.28282   0.28378   0.19226  -0.14465
C          C       0.71433   0.71799   0.80853  -0.22967
C          C       0.71545   0.19379   0.71909  -0.07068
C          C       0.28305   0.80758   0.28405  -0.14829
C          C       0.28503   0.19178   0.71757  -0.22448
C          C       0.71550   0.80679   0.28144  -0.07422
C          C       0.21577   0.30627   0.78103  -0.07271
C          C       0.78496   0.69230   0.21828  -0.22482
C          C       0.78487   0.30843   0.78219  -0.22403
C          C       0.21571   0.69126   0.21413   0.30575
C          C       0.21560   0.21395   0.30851   0.30633
C          C       0.78407   0.78078   0.69397  -0.07041
C          C       0.78427   0.21346   0.30811   0.30374
C          C       0.21573   0.78065   0.69378  -0.06989
C          C       0.78298   0.21644   0.69313  -0.14628
C          C       0.21563   0.78149   0.30670  -0.07566
C          C       0.21610   0.21413   0.69027   0.30790
C          C       0.78286   0.78405   0.30765  -0.14998
C          C       0.78409   0.30628   0.21808  -0.07763
C          C       0.21628   0.69053   0.78658   0.30825
C          C       0.21548   0.30655   0.21834  -0.07534
C          C       0.78328   0.69056   0.78652   0.30676
N          N       0.18506   0.17698   0.36279  -0.60361
N          N       0.81526   0.17597   0.36192  -0.59935
N          N       0.81287   0.63540   0.82271  -0.60279
N          N       0.18620   0.63593   0.82330  -0.60016
N          N       0.18502   0.63696   0.17729  -0.59739
N          N       0.50073   0.56699   0.86735  -0.60386
N          N       0.68424   0.32402   0.86262  -0.60141
N          N       0.49983   0.86767   0.43279  -0.59815
N          N       0.68598   0.67872   0.13573  -0.59957
N          N       0.00013   0.93412   0.36733  -0.59895
N          N       0.18651   0.17891   0.63454  -0.60466
N          N      -0.00012   0.36892   0.06628  -0.60285
O          O       0.49987   0.31624   0.05958  -0.59047
O          O       0.50027   0.05973   0.68327  -0.59331
O          O       0.49995   0.05891   0.31655  -0.60938
O          O       0.50018   0.68330   0.05871  -0.61602
O          O       0.00021   0.18436   0.55954  -0.59443
O          O       0.00004   0.56003   0.81562  -0.59956
O          O       0.00010   0.44111   0.81630  -0.60320
O          O      -0.00024   0.18473   0.44070  -0.61352
O          O       0.06674   0.30213   0.50043  -0.96595
O          O       0.06879   0.69872   0.50089  -0.95325
O          O       0.06943   0.49976   0.69854  -0.96086
O          O       0.06652   0.50007   0.30165  -0.96076
O          O       0.41870   0.22963   0.14532  -0.62147
O          O       0.58079   0.77109   0.85446  -0.64602
O          O       0.58090   0.22928   0.14520  -0.63083
O          O       0.41889   0.77078   0.85445  -0.63543
O          O       0.41878   0.14562   0.77073  -0.62808
O          O       0.58115   0.85450   0.22999  -0.64629
O          O       0.58125   0.14563   0.77001  -0.63831
O          O       0.41882   0.85498   0.22962  -0.62248
O          O       0.58106   0.14565   0.22925  -0.63132
O          O       0.41882   0.85454   0.77061  -0.63246
O          O       0.41869   0.14582   0.22911  -0.64056
O          O       0.58115   0.85493   0.77049  -0.62300
O          O       0.57796   0.22811   0.85458  -0.63865
O          O       0.41831   0.77117   0.14581  -0.64645
O          O       0.41822   0.22918   0.85470  -0.63171
O          O       0.57800   0.77168   0.14566  -0.64377
O          O       0.07788   0.27124   0.64574  -0.63948
O          O       0.08120   0.73083   0.35445  -0.64302
O          O       0.08113   0.35476   0.26944  -0.64010
O          O       0.07812   0.64566   0.72962  -0.64152
O          O       0.07804   0.64574   0.27226  -0.64668
O          O       0.08141   0.35435   0.72969  -0.64001
O          O       0.08140   0.72915   0.64600  -0.63902
O          O       0.07863   0.27305   0.35471  -0.64680
O          O       0.49990   0.10868   0.10898  -1.03201
O          O       0.49973   0.89251   0.89130  -1.02838
O          O       0.49964   0.10785   0.89139  -1.03081
O          O       0.49988   0.89156   0.10783  -1.03667
O          O       0.00001   0.39208   0.60866  -1.02730
O          O      -0.00006   0.60802   0.39170  -1.03340
O          O      -0.00014   0.39254   0.39187  -1.02408
O          O       0.00016   0.60884   0.60787  -1.02754
O          O       0.93329   0.69833   0.50041  -0.95323
O          O       0.93035   0.30233   0.50003  -0.95773
O          O       0.93046   0.49961   0.30157  -0.95460
O          O       0.93321   0.49943   0.69798  -0.96052
O          O       0.49993   0.68566   0.94014  -0.61110
O          O       0.50027   0.94033   0.31445  -0.61123
O          O       0.50012   0.94097   0.68342  -0.59927
O          O       0.50010   0.31580   0.94084  -0.60378
O          O       0.00017   0.81550   0.44030  -0.60928
O          O      -0.00021   0.44046   0.18433  -0.61181
O          O       0.00007   0.55901   0.18337  -0.61552
O          O       0.00005   0.81830   0.55887  -0.61017
O          O       0.43294  -0.00013   0.19810  -0.95327
O          O       0.56723   0.00005   0.80201  -0.94890
O          O       0.56866   0.00049   0.19817  -0.95342
O          O       0.43176   0.00048   0.79910  -0.94959
O          O       0.43052   0.80206  -0.00039  -0.95394
O          O       0.56669   0.19812  -0.00008  -0.95829
O          O       0.56664   0.80215   0.00033  -0.96032
O          O       0.43062   0.19795   0.00054  -0.94933
O          O       0.91894   0.72962   0.35487  -0.62519
O          O       0.91828   0.27087   0.64531  -0.63150
O          O       0.92142   0.64519   0.72938  -0.63877
O          O       0.91872   0.35422   0.26829  -0.63982
O          O       0.91906   0.35445   0.72925  -0.63099
O          O       0.91833   0.64573   0.27106  -0.64520
O          O       0.92118   0.27317   0.35432  -0.64854
O          O       0.91851   0.72900   0.64601  -0.63920

