data_crystal

_cell_length_a 28.19295
_cell_length_b 7.19717
_cell_length_c 17.19691
_cell_angle_alpha 90.07779
_cell_angle_beta  101.89331
_cell_angle_gamma 89.96850

_symmetry_space_group_name_	'P 1'
_symmetry_space_group_name_H-M	'P 1'

loop_
_symmetry_equiv_pos_as_xyz
  x,y,z

loop_
_atom_site_label
_atom_site_type_symbol
_atom_site_fract_x
_atom_site_fract_y
_atom_site_fract_z
_atom_site_charge
O 	O 	0.00070 0.43651 0.85792 -0.46800
O 	O 	0.99930 0.56349 0.14208 -0.46800
O 	O 	0.99930 0.93651 0.64208 -0.46700
O 	O 	0.00070 0.06349 0.35792 -0.47300
O 	O 	0.93008 0.76638 0.72189 -0.48000
O 	O 	0.06992 0.23362 0.27811 -0.48300
O 	O 	0.06992 0.26638 0.77811 -0.48100
O 	O 	0.93008 0.73362 0.22189 -0.48100
C 	C 	0.91057 0.59762 0.70895 0.34000
C 	C 	0.08943 0.40236 0.29121 0.34000
C 	C 	0.08943 0.09757 0.79107 0.33600
C 	C 	0.91057 0.90243 0.20902 0.34300
O 	O 	0.99618 0.76623 0.86231 -0.47200
O 	O 	0.00382 0.23377 0.13769 -0.47400
O 	O 	0.00382 0.26623 0.63769 -0.47200
O 	O 	0.99618 0.73377 0.36231 -0.47300
O 	O 	0.06587 0.93646 0.78350 -0.47100
O 	O 	0.93413 0.06354 0.21650 -0.47800
O 	O 	0.93413 0.43646 0.71650 -0.47600
O 	O 	0.06587 0.56354 0.28350 -0.47500
C 	C 	0.99849 0.59650 0.89450 0.34600
C 	C 	0.00151 0.40350 0.10551 0.34700
C 	C 	0.00152 0.09639 0.60554 0.34400
C 	C 	0.99849 0.90361 0.39447 0.35000
O 	O 	0.02279 0.60302 0.72398 -0.60800
O 	O 	0.97721 0.39698 0.27602 -0.60800
O 	O 	0.97721 0.10302 0.77602 -0.61000
O 	O 	0.02279 0.89698 0.22398 -0.60500
V 	V 	0.99577 0.87790 0.75483 1.80000
V 	V 	0.00423 0.12210 0.24517 1.79900
V 	V 	0.00423 0.37790 0.74517 1.80000
V 	V 	0.99577 0.62210 0.25483 1.80000
C 	C 	0.00172 0.08258 0.51961 -0.09400
C 	C 	0.99830 0.91741 0.48040 -0.08600
C 	C 	0.99830 0.58265 0.98047 -0.08900
C 	C 	0.00170 0.41735 0.01953 -0.09000
H 	H 	0.00451 0.21135 0.48799 0.09000
H 	H 	0.99551 0.78864 0.51201 0.08800
H 	H 	0.99553 0.71145 0.01222 0.08900
H 	H 	0.00447 0.28855 0.98777 0.08800
C 	C 	0.68159 0.87389 0.03499 0.18800
C 	C 	0.31830 0.12532 0.96633 0.18700
C 	C 	0.31649 0.46790 0.47639 0.19300
C 	C 	0.68423 0.49611 0.52944 0.18800
O 	O 	0.70944 0.79643 0.98858 -0.19200
O 	O 	0.29044 0.20290 0.01268 -0.19400
O 	O 	0.28693 0.48232 0.52863 -0.18900
O 	O 	0.71427 0.45769 0.47977 -0.19300
N 	N 	0.70275 0.94305 0.10813 -0.16100
N 	N 	0.29717 0.05646 0.89312 -0.16400
N 	N 	0.29715 0.43793 0.39749 -0.16100
N 	N 	0.70307 0.55090 0.60584 -0.16200
C 	C 	0.67529 0.02421 0.15591 0.19100
C 	C 	0.32464 0.97520 0.84538 0.19600
C 	C 	0.32664 0.41575 0.34398 0.19000
C 	C 	0.67340 0.59113 0.65740 0.19300
C 	C 	0.77748 0.76285 0.15600 -0.06500
C 	C 	0.22251 0.23697 0.84498 -0.06300
C 	C 	0.22249 0.26290 0.34297 -0.06600
C 	C 	0.78243 0.40436 0.65458 -0.06600
C 	C 	0.82796 0.75194 0.17996 0.01900
C 	C 	0.17206 0.24797 0.82065 0.01900
C 	C 	0.17212 0.25304 0.31758 0.01700
C 	C 	0.83279 0.41498 0.67919 0.01900
C 	C 	0.83369 0.08435 0.16223 -0.03700
C 	C 	0.16623 0.91556 0.83830 -0.03000
C 	C 	0.16604 0.58154 0.34417 -0.03400
C 	C 	0.82890 0.74897 0.66182 -0.03400
C 	C 	0.78313 0.09493 0.13620 0.08800
C 	C 	0.21676 0.90489 0.86467 0.09500
C 	C 	0.21672 0.59128 0.37242 0.08900
C 	C 	0.77828 0.73795 0.63499 0.09000
C 	C 	0.75474 0.93377 0.13431 0.07800
C 	C 	0.24519 0.06599 0.86680 0.06900
C 	C 	0.24510 0.43090 0.37043 0.07700
C 	C 	0.75491 0.56483 0.63247 0.07600
C 	C 	0.60209 0.96945 0.05523 0.06000
C 	C 	0.39780 0.02934 0.94622 0.05400
C 	C 	0.39798 0.46121 0.44949 0.05800
C 	C 	0.60246 0.52061 0.55431 0.05800
C 	C 	0.63101 0.88512 0.00743 -0.07100
C 	C 	0.36886 0.11367 0.99401 -0.07100
C 	C 	0.36703 0.48278 0.50353 -0.07100
C 	C 	0.63369 0.48047 0.50225 -0.07100
C 	C 	0.60902 0.81485 0.93303 0.00700
C 	C 	0.39084 0.18345 0.06852 0.00700
C 	C 	0.38709 0.51812 0.58346 0.00900
C 	C 	0.61392 0.42483 0.42445 0.00700
C 	C 	0.62462 0.03937 0.13030 -0.07600
C 	C 	0.37529 0.95967 0.87109 -0.06900
C 	C 	0.37746 0.42557 0.36904 -0.07100
C 	C 	0.62267 0.57629 0.63270 -0.07200
C 	C 	0.85679 0.91273 0.18361 -0.06400
C 	C 	0.14319 0.08722 0.81676 -0.07100
C 	C 	0.14317 0.41221 0.31777 -0.06700
C 	C 	0.85680 0.58743 0.68327 -0.06600
H 	H 	0.85467 0.21106 0.16486 0.06700
H 	H 	0.14523 0.78888 0.83550 0.06600
H 	H 	0.14457 0.70658 0.34262 0.06400
H 	H 	0.84619 0.88390 0.66505 0.06400
H 	H 	0.63038 0.74889 0.89512 0.05000
H 	H 	0.36947 0.24916 0.10648 0.04900
H 	H 	0.36419 0.53334 0.62653 0.04900
H 	H 	0.63709 0.39076 0.38341 0.04900
C 	C 	0.47760 0.92807 0.92446 0.02100
C 	C 	0.52227 0.07039 0.07706 0.01000
C 	C 	0.52031 0.54063 0.58219 0.01600
C 	C 	0.48005 0.44668 0.42095 0.01600
C 	C 	0.47106 0.08561 0.04968 0.01700
C 	C 	0.52881 0.91272 0.95187 0.01300
C 	C 	0.53138 0.45429 0.44799 0.01500
C 	C 	0.46919 0.51805 0.55675 0.01600
C 	C 	0.44905 0.01435 0.97356 -0.03000
C 	C 	0.55083 0.98418 0.02795 -0.02000
C 	C 	0.55118 0.50510 0.52805 -0.02400
C 	C 	0.44929 0.47527 0.47584 -0.02500
C 	C 	0.45362 0.86010 0.84918 -0.05600
C 	C 	0.54627 0.13853 0.15230 -0.05400
C 	C 	0.54190 0.59925 0.66013 -0.05500
C 	C 	0.45811 0.41281 0.34038 -0.05500
C 	C 	0.40367 0.87575 0.82330 0.00900
C 	C 	0.59623 0.12315 0.17813 0.00800
C 	C 	0.59191 0.61646 0.68465 0.00900
C 	C 	0.40798 0.40273 0.31519 0.00900
O 	O 	0.30304 0.90982 0.77318 -0.18100
O 	O 	0.69691 0.08984 0.22806 -0.18400
O 	O 	0.69291 0.64444 0.73243 -0.18200
O 	O 	0.30690 0.38590 0.26659 -0.18600
C 	C 	0.55914 0.82793 0.90578 -0.05200
C 	C 	0.44071 0.17010 0.09584 -0.05400
C 	C 	0.43698 0.53568 0.60962 -0.05400
C 	C 	0.56396 0.41184 0.39778 -0.05300
H 	H 	0.15578 0.38249 0.80452 0.04800
H 	H 	0.84427 0.61745 0.19600 0.04900
H 	H 	0.85281 0.28763 0.69554 0.04800
H 	H 	0.15596 0.12058 0.29725 0.04500
H 	H 	0.24415 0.36164 0.84673 0.07400
H 	H 	0.75589 0.63812 0.15439 0.07400
H 	H 	0.76464 0.27088 0.65286 0.07000
H 	H 	0.24410 0.13900 0.34172 0.07100
H 	H 	0.38735 0.82093 0.76522 0.04500
H 	H 	0.61256 0.17808 0.23618 0.04400
H 	H 	0.60640 0.66176 0.74496 0.04300
H 	H 	0.39322 0.37707 0.25281 0.04300
H 	H 	0.47220 0.79340 0.80806 0.04300
H 	H 	0.52768 0.20525 0.19340 0.04200
H 	H 	0.52112 0.63655 0.70373 0.04200
H 	H 	0.47858 0.39698 0.29443 0.04200
H 	H 	0.54573 0.76954 0.84785 0.04300
H 	H 	0.45410 0.22798 0.15388 0.04300
H 	H 	0.44909 0.56001 0.67235 0.04400
H 	H 	0.55215 0.36472 0.33747 0.04300
O 	O 	0.76096 0.26431 0.11604 -0.17300
C 	C 	0.76636 0.31117 0.03878 -0.04000
H 	H 	0.75140 0.20109 0.99496 0.06000
H 	H 	0.80496 0.33934 0.03730 0.05200
H 	H 	0.74562 0.44022 0.02037 0.06600
O 	O 	0.23887 0.73543 0.88492 -0.17300
C 	C 	0.23330 0.68856 0.96209 -0.04000
H 	H 	0.19466 0.66065 0.96337 0.05200
H 	H 	0.24824 0.79853 0.00598 0.06200
H 	H 	0.25397 0.55938 0.98057 0.06600
O 	O 	0.23997 0.75821 0.39593 -0.17100
C 	C 	0.21978 0.84419 0.45551 -0.03700
H 	H 	0.21276 0.74365 0.50105 0.06300
H 	H 	0.18609 0.92028 0.42895 0.04900
H 	H 	0.24606 0.94812 0.48663 0.06300
O 	O 	0.75101 0.89699 0.61529 -0.17400
C 	C 	0.75656 0.95733 0.53971 -0.03100
H 	H 	0.74708 0.84581 0.49418 0.06100
H 	H 	0.79396 0.00890 0.54161 0.04800
H 	H 	0.73132 0.07475 0.52097 0.06000
