data_crystal

_cell_length_a 16.90661
_cell_length_b 16.93192
_cell_length_c 16.75534
_cell_angle_alpha 65.95237
_cell_angle_beta  65.78936
_cell_angle_gamma 66.61936

_symmetry_space_group_name_	'P 1'
_symmetry_space_group_name_H-M	'P 1'

loop_
_symmetry_equiv_pos_as_xyz
  x,y,z

loop_
_atom_site_label
_atom_site_type_symbol
_atom_site_fract_x
_atom_site_fract_y
_atom_site_fract_z
_atom_site_charge
C 	C 	0.39983 0.09771 0.64061 0.18500
C 	C 	0.40086 0.66587 0.05309 0.18300
C 	C 	0.26040 0.73448 0.28196 -0.02900
C 	C 	0.31106 0.70914 0.34089 -0.03000
C 	C 	0.33004 0.77465 0.35518 -0.02800
C 	C 	0.13397 0.70451 0.69833 -0.01900
C 	C 	0.22740 0.68396 0.65477 -0.02800
C 	C 	0.28219 0.71787 0.66879 -0.02900
C 	C 	0.24420 0.77273 0.72622 -0.02700
C 	C 	0.15154 0.79265 0.77091 -0.04600
C 	C 	0.09644 0.75894 0.75702 -0.02300
C 	C 	0.88451 0.28487 0.28761 -0.02200
C 	C 	0.94150 0.59719 0.34099 0.18300
C 	C 	0.79070 0.30062 0.31485 -0.02800
C 	C 	0.75292 0.26426 0.28247 -0.02900
C 	C 	0.80852 0.21290 0.22190 -0.02700
C 	C 	0.90187 0.19575 0.19537 -0.06300
C 	C 	0.93995 0.23075 0.22856 -0.00300
C 	C 	0.72038 0.72054 0.10243 -0.02100
C 	C 	0.77687 0.77618 0.03861 0.00900
C 	C 	0.82022 0.80904 0.06831 -0.06800
C 	C 	0.80764 0.78717 0.16154 -0.02700
C 	C 	0.75036 0.73368 0.22548 -0.03900
C 	C 	0.04177 0.40478 0.66600 0.18900
C 	C 	0.70710 0.70015 0.19611 -0.02600
C 	C 	0.28625 0.28476 0.89685 -0.01300
C 	C 	0.22971 0.22701 0.95039 -0.01600
C 	C 	0.19656 0.19575 0.90878 -0.05700
C 	C 	0.21745 0.22332 0.81386 -0.03200
C 	C 	0.27042 0.28332 0.76016 -0.02700
C 	C 	0.30523 0.31361 0.80145 -0.03000
C 	C 	0.96199 0.17907 0.43807 0.44000
C 	C 	0.03641 0.82067 0.56257 0.43900
C 	C 	0.17923 0.43757 0.96419 0.42900
C 	C 	0.82055 0.56271 0.03717 0.42000
C 	C 	0.43806 0.96202 0.17964 0.43400
C 	C 	0.56201 0.03920 0.82031 0.43500
C 	C 	0.56205 0.82132 0.03772 0.43200
C 	C 	0.59457 0.94549 0.34645 0.18100
C 	C 	0.43229 0.17705 0.97630 0.44200
C 	C 	0.03831 0.56213 0.82035 0.43400
C 	C 	0.96147 0.43789 0.17948 0.43300
C 	C 	0.82116 0.03877 0.56175 0.44700
C 	C 	0.17705 0.97675 0.43162 0.45600
C 	C 	0.44673 0.09101 0.69621 -0.17400
C 	C 	0.54988 0.93127 0.30085 -0.16600
C 	C 	0.05580 0.70890 0.44786 -0.16700
C 	C 	0.93152 0.29258 0.55507 -0.17300
C 	C 	0.69665 0.44909 0.08608 -0.16600
C 	C 	0.04149 0.66426 0.40314 0.18100
C 	C 	0.29771 0.54923 0.93797 -0.17900
C 	C 	0.26350 0.04665 0.50281 -0.15600
C 	C 	0.71249 0.06039 0.44600 -0.18000
C 	C 	0.51137 0.26802 0.03326 -0.16900
C 	C 	0.44662 0.70808 0.07003 -0.16800
C 	C 	0.92915 0.55160 0.29587 -0.16800
C 	C 	0.06179 0.44934 0.70687 -0.17400
C 	C 	0.53942 0.04142 0.53456 0.08500
C 	C 	0.45020 0.00788 0.44583 0.04000
C 	C 	0.01815 0.54268 0.54341 0.07400
C 	C 	0.94592 0.33684 0.60096 0.19000
C 	C 	0.96948 0.45856 0.46127 0.07300
C 	C 	0.53483 0.54085 0.04075 0.06700
C 	C 	0.44686 0.45239 0.00508 0.09300
C 	C 	0.58684 0.02157 0.45015 -0.06700
C 	C 	0.39983 0.03752 0.52542 -0.05100
C 	C 	0.00941 0.45382 0.58892 -0.05100
C 	C 	0.97599 0.54800 0.41704 -0.06400
C 	C 	0.44885 0.58627 0.02657 -0.03200
C 	C 	0.52878 0.40432 0.02857 -0.07300
C 	C 	0.54469 0.99345 0.41226 -0.02100
C 	C 	0.64291 0.40200 0.08998 0.18100
C 	C 	0.44500 0.05613 0.56909 -0.07600
C 	C 	0.40997 0.54519 0.99779 -0.07200
C 	C 	0.57102 0.44816 0.04999 -0.05800
C 	C 	0.97787 0.41440 0.55067 -0.04700
C 	C 	0.00917 0.58672 0.45419 -0.06700
C 	C 	0.54141 0.06497 0.66903 0.17300
C 	C 	0.45546 0.95663 0.32492 0.15900
C 	C 	0.04735 0.67507 0.54218 0.16500
C 	C 	0.94350 0.32580 0.46016 0.16900
C 	C 	0.66953 0.54341 0.06209 0.16300
C 	C 	0.34025 0.59471 0.95527 0.19500
C 	C 	0.32422 0.45492 0.95910 0.17300
C 	C 	0.31194 0.00596 0.43152 0.13400
C 	C 	0.67595 0.05574 0.53967 0.17700
C 	C 	0.43577 0.31393 0.99968 0.16700
C 	C 	0.54043 0.67492 0.05838 0.16700
C 	C 	0.94213 0.45776 0.32840 0.16800
C 	C 	0.05110 0.54275 0.67343 0.16900
C 	C 	0.59171 0.06484 0.71976 -0.21500
C 	C 	0.40854 0.94380 0.27903 -0.21100
C 	C 	0.05735 0.72191 0.59096 -0.21000
C 	C 	0.30612 0.04507 0.55868 0.17200
C 	C 	0.93836 0.27775 0.40964 -0.21500
C 	C 	0.72107 0.59378 0.06058 -0.20300
C 	C 	0.27730 0.40684 0.94885 -0.21300
C 	C 	0.27134 0.97352 0.39477 -0.20400
C 	C 	0.72287 0.06274 0.58999 -0.22300
C 	C 	0.39575 0.27148 0.97282 -0.21500
C 	C 	0.59167 0.72332 0.06088 -0.21000
C 	C 	0.93730 0.40822 0.27946 -0.21300
C 	C 	0.06091 0.59118 0.72033 -0.21300
C 	C 	0.67658 0.07913 0.67459 0.15500
C 	C 	0.67109 0.04048 0.40208 0.19700
C 	C 	0.32323 0.93381 0.32459 0.15000
C 	C 	0.07692 0.67513 0.67357 0.14900
C 	C 	0.92358 0.32301 0.32460 0.15300
C 	C 	0.67798 0.67971 0.07165 0.14900
C 	C 	0.32043 0.32071 0.94096 0.14900
C 	C 	0.58597 0.05317 0.58140 -0.13900
C 	C 	0.40610 0.98926 0.40145 -0.09600
C 	C 	0.03866 0.58692 0.58642 -0.13000
C 	C 	0.95172 0.41397 0.41663 -0.13100
C 	C 	0.58197 0.58687 0.05274 -0.12500
C 	C 	0.56578 0.31361 0.02827 0.18700
C 	C 	0.40291 0.40742 0.98671 -0.14200
C 	C 	0.70482 0.13224 0.70551 -0.02000
C 	C 	0.76060 0.09080 0.76311 -0.02400
C 	C 	0.77577 0.14212 0.80021 -0.04900
C 	C 	0.73562 0.23492 0.78021 -0.02600
C 	C 	0.68198 0.27691 0.72141 -0.02900
C 	C 	0.66649 0.22588 0.68430 -0.02700
C 	C 	0.29849 0.86618 0.31046 -0.01900
C 	C 	0.24709 0.89116 0.25159 -0.02300
C 	C 	0.22775 0.82546 0.23797 -0.04200
H 	H 	0.40923 0.11921 0.75294 0.09600
H 	H 	0.40617 0.76337 0.09872 0.08400
H 	H 	0.90162 0.59232 0.23940 0.09600
H 	H 	0.09290 0.40807 0.76079 0.08600
H 	H 	0.30544 0.18506 0.58827 0.16000
H 	H 	0.71138 0.88127 0.28179 0.14700
H 	H 	0.08898 0.64192 0.28553 0.15700
H 	H 	0.90957 0.25069 0.71919 0.14100
H 	H 	0.59578 0.30117 0.17316 0.15700
H 	H 	0.26632 0.71175 0.90179 0.14100
H 	H 	0.29382 0.00104 0.68758 0.15100
H 	H 	0.58927 0.89383 0.25143 0.08300
H 	H 	0.77216 0.04423 0.29132 0.14100
H 	H 	0.69117 0.31230 0.97726 0.14500
H 	H 	0.28566 0.75424 0.08486 0.14100
H 	H 	0.89109 0.71153 0.36708 0.15900
H 	H 	0.06106 0.29139 0.75972 0.14100
H 	H 	0.78919 0.01848 0.78222 0.03500
H 	H 	0.81741 0.10972 0.84574 0.02200
H 	H 	0.74609 0.27435 0.81025 0.04100
H 	H 	0.65121 0.34884 0.70573 0.04000
H 	H 	0.62262 0.25895 0.64088 0.03900
H 	H 	0.08280 0.76549 0.40464 0.09700
H 	H 	0.22184 0.96137 0.21664 0.03500
H 	H 	0.18762 0.84510 0.19314 0.03000
H 	H 	0.24612 0.68358 0.27075 0.04900
H 	H 	0.33582 0.63871 0.37533 0.03700
H 	H 	0.36982 0.75412 0.40070 0.03900
H 	H 	0.25745 0.64322 0.60835 0.03800
H 	H 	0.35395 0.70256 0.63416 0.03900
H 	H 	0.28656 0.80003 0.73588 0.04000
H 	H 	0.12218 0.83536 0.81523 0.02300
H 	H 	0.02431 0.77775 0.78943 0.03600
H 	H 	0.90313 0.23640 0.59623 0.08500
H 	H 	0.74705 0.34065 0.36135 0.03800
H 	H 	0.68050 0.27610 0.30422 0.04900
H 	H 	0.77963 0.18600 0.19533 0.05400
H 	H 	0.94473 0.15518 0.14929 0.02400
H 	H 	0.01273 0.21610 0.20832 0.02200
H 	H 	0.78841 0.79218 0.96588 0.01700
H 	H 	0.86423 0.85072 0.01900 0.02900
H 	H 	0.84234 0.81207 0.18396 0.04400
H 	H 	0.74042 0.71715 0.29787 0.04700
H 	H 	0.66422 0.65751 0.24611 0.03800
H 	H 	0.75266 0.41087 0.11418 0.09500
H 	H 	0.21203 0.20624 0.02440 0.03100
H 	H 	0.15452 0.15035 0.95010 0.01800
H 	H 	0.19235 0.19767 0.78241 0.05200
H 	H 	0.28496 0.30599 0.68651 0.04800
H 	H 	0.34648 0.35971 0.75937 0.03900
H 	H 	0.24765 0.58908 0.90195 0.08600
H 	H 	0.19143 0.07427 0.52283 0.09000
H 	H 	0.77002 0.08605 0.40300 0.08800
H 	H 	0.53507 0.19644 0.05999 0.09800
O 	O 	0.98294 0.13895 0.51016 -0.48300
O 	O 	0.98294 0.51016 0.13895 -0.47600
O 	O 	0.86105 0.01706 0.48984 -0.48500
O 	O 	0.13895 0.98294 0.51016 -0.48200
O 	O 	0.86770 0.02588 0.61234 -0.47500
O 	O 	0.13230 0.97412 0.38766 -0.47600
O 	O 	0.02588 0.61234 0.86770 -0.47400
O 	O 	0.97412 0.38766 0.13230 -0.46700
O 	O 	0.61234 0.86770 0.02588 -0.45800
O 	O 	0.38766 0.13230 0.97412 -0.47200
O 	O 	0.38766 0.97412 0.13230 -0.47000
O 	O 	0.01706 0.86105 0.48984 -0.47700
O 	O 	0.61234 0.02588 0.86770 -0.47200
O 	O 	0.13230 0.38766 0.97412 -0.46300
O 	O 	0.86770 0.61234 0.02588 -0.45500
O 	O 	0.97412 0.13230 0.38766 -0.47000
O 	O 	0.02588 0.86770 0.61234 -0.46100
O 	O 	0.31467 0.15623 0.64968 -0.29800
O 	O 	0.68538 0.90377 0.33558 -0.28100
O 	O 	0.06778 0.69431 0.30878 -0.29700
O 	O 	0.91816 0.31164 0.69544 -0.28600
O 	O 	0.65538 0.31392 0.14360 -0.29500
O 	O 	0.13895 0.51016 0.98294 -0.47700
O 	O 	0.32113 0.68737 0.92186 -0.28800
O 	O 	0.25464 0.04195 0.64786 -0.29400
O 	O 	0.70664 0.05132 0.30919 -0.28600
O 	O 	0.65590 0.26801 0.01681 -0.28800
O 	O 	0.30789 0.69476 0.07401 -0.27900
O 	O 	0.91184 0.68982 0.31319 -0.29800
O 	O 	0.06468 0.31212 0.69417 -0.28100
O 	O 	0.86105 0.48984 0.01706 -0.46200
O 	O 	0.51016 0.98294 0.13895 -0.48100
O 	O 	0.48984 0.01706 0.86105 -0.48200
O 	O 	0.48984 0.86105 0.01706 -0.46700
O 	O 	0.51016 0.13895 0.98294 -0.48100
O 	O 	0.01706 0.48984 0.86105 -0.48300
Zn	Zn	0.00488 0.00488 0.58359 1.18700
Zn	Zn	0.99512 0.99512 0.41641 1.19100
Zn	Zn	0.00488 0.58359 0.00488 1.19300
Zn	Zn	0.99512 0.41641 0.99512 1.18800
Zn	Zn	0.58359 0.00488 0.00488 1.19200
Zn	Zn	0.41641 0.99512 0.99512 1.18900
