data_crystal

_cell_length_a 7.75831
_cell_length_b 8.54708
_cell_length_c 23.35759
_cell_angle_alpha 91.02391
_cell_angle_beta  85.68426
_cell_angle_gamma 94.15615

_symmetry_space_group_name_	'P 1'
_symmetry_space_group_name_H-M	'P 1'

loop_
_symmetry_equiv_pos_as_xyz
  x,y,z

loop_
_atom_site_label
_atom_site_type_symbol
_atom_site_fract_x
_atom_site_fract_y
_atom_site_fract_z
_atom_site_charge
C 	C 	0.54618 0.79487 0.49851 0.37800
C 	C 	0.45382 0.20513 0.50152 0.40100
C 	C 	0.63859 0.45729 0.76020 0.09000
C 	C 	0.62736 0.54344 0.23148 0.08900
C 	C 	0.63699 0.44673 0.70026 -0.03200
C 	C 	0.63576 0.54382 0.29162 -0.03000
C 	C 	0.50748 0.51490 0.67251 -0.08800
C 	C 	0.49012 0.49444 0.32746 -0.08800
C 	C 	0.38085 0.59569 0.70425 0.02300
C 	C 	0.33546 0.44241 0.30412 0.02600
C 	C 	0.38067 0.60494 0.76341 -0.07200
C 	C 	0.32455 0.44375 0.24541 -0.07400
C 	C 	0.50635 0.53330 0.79122 0.07900
C 	C 	0.46654 0.49884 0.20902 0.07700
C 	C 	0.57030 0.95871 0.49767 -0.08300
C 	C 	0.42971 0.04130 0.50240 -0.14600
C 	C 	0.50230 0.50239 0.61055 0.35400
C 	C 	0.49760 0.49874 0.38945 0.35500
C 	C 	0.38307 0.38253 0.11864 0.20500
C 	C 	0.56700 0.65602 0.88141 0.21000
C 	C 	0.49584 0.64966 0.12181 0.17800
C 	C 	0.40165 0.40897 0.87919 0.18000
C 	C 	0.51075 0.65570 0.06212 -0.03700
C 	C 	0.38308 0.40534 0.93898 -0.04100
C 	C 	0.44442 0.52641 0.03055 0.03200
C 	C 	0.45795 0.53122 0.97038 0.03400
C 	C 	0.36785 0.39136 0.05918 -0.10900
C 	C 	0.54978 0.65999 0.94167 -0.11700
C 	C 	0.59764 0.78497 0.03382 -0.08600
C 	C 	0.29204 0.27845 0.96755 -0.08600
C 	C 	0.62093 0.78744 0.97389 0.16000
C 	C 	0.28587 0.26729 0.02781 0.15500
H 	H 	0.28097 0.65038 0.68339 0.04100
H 	H 	0.22255 0.40114 0.33130 0.03800
H 	H 	0.28016 0.66418 0.78797 0.06500
H 	H 	0.20439 0.40269 0.22809 0.06600
H 	H 	0.01360 0.38255 0.45681 0.08500
H 	H 	0.98641 0.61747 0.54319 0.06600
N 	N 	0.44650 0.51079 0.14864 -0.16400
N 	N 	0.49351 0.53194 0.85216 -0.16700
N 	N 	0.95033 0.45795 0.48456 -0.24300
N 	N 	0.04967 0.54205 0.51544 -0.21600
O 	O 	0.38925 0.73857 0.50379 -0.45800
O 	O 	0.61075 0.26143 0.49621 -0.46800
O 	O 	0.67839 0.71162 0.49389 -0.45900
O 	O 	0.32161 0.28838 0.50611 -0.46400
O 	O 	0.35540 0.51352 0.58879 -0.44000
O 	O 	0.64460 0.48648 0.41121 -0.44200
O 	O 	0.64455 0.48657 0.57890 -0.44100
O 	O 	0.35545 0.51343 0.42110 -0.43900
O 	O 	0.34143 0.24558 0.14589 -0.18300
O 	O 	0.65450 0.77472 0.85188 -0.18400
O 	O 	0.53327 0.78079 0.15292 -0.18200
O 	O 	0.33002 0.29014 0.84800 -0.19600
Zn	Zn	0.30693 0.51800 0.50661 1.23100
Zn	Zn	0.69307 0.48200 0.49339 1.23000
H 	H 	0.65712 0.88063 0.05819 0.07600
H 	H 	0.22738 0.18783 0.94246 0.06800
O 	O 	0.73276 0.90290 0.94767 -0.21000
C 	C 	0.65340 0.04656 0.94957 0.08300
H 	H 	0.62428 0.08715 0.99458 0.01700
H 	H 	0.53192 0.03537 0.92680 0.02700
C 	C 	0.77683 0.17077 0.91952 -0.19000
H 	H 	0.71763 0.28516 0.92091 0.08300
H 	H 	0.89946 0.18471 0.94127 0.07900
H 	H 	0.80586 0.13587 0.87400 0.09400
O 	O 	0.18703 0.14803 0.05801 -0.20400
C 	C 	0.17939 0.00232 0.02831 0.07000
H 	H 	0.30781 0.97643 0.00733 0.02600
H 	H 	0.08129 0.00087 0.99596 0.02700
C 	C 	0.12293 0.87224 0.07071 -0.16600
H 	H 	0.99141 0.89033 0.09082 0.07600
H 	H 	0.11976 0.75677 0.04808 0.07600
H 	H 	0.21548 0.87195 0.10471 0.09100
O 	O 	0.75358 0.37886 0.78997 -0.20000
C 	C 	0.92824 0.42353 0.77172 0.06600
H 	H 	0.99428 0.46999 0.80971 0.02700
H 	H 	0.94620 0.51781 0.73889 0.01900
C 	C 	0.01825 0.28003 0.74895 -0.16100
H 	H 	0.95548 0.22989 0.71092 0.06600
H 	H 	0.01103 0.18945 0.78271 0.08800
H 	H 	0.15658 0.31329 0.73627 0.08000
O 	O 	0.76426 0.59711 0.19286 -0.18900
C 	C 	0.93122 0.58197 0.21137 0.04900
H 	H 	0.01456 0.54513 0.17348 0.04100
H 	H 	0.93555 0.48926 0.24391 0.01800
C 	C 	0.00877 0.74030 0.23209 -0.15800
H 	H 	0.14242 0.72854 0.24456 0.07500
H 	H 	0.92984 0.78495 0.26958 0.06900
H 	H 	0.01390 0.82724 0.19718 0.08600
H 	H 	0.73245 0.38168 0.67567 0.05400
H 	H 	0.75212 0.58650 0.31124 0.05300
H 	H 	0.70272 0.01072 0.49317 0.07600
H 	H 	0.29729 0.98928 0.50691 0.10500
