data_crystal

_cell_length_a 18.85014
_cell_length_b 10.89173
_cell_length_c 18.76276
_cell_angle_alpha 89.98153
_cell_angle_beta  91.14991
_cell_angle_gamma 90.05474

_symmetry_space_group_name_	'P 1'
_symmetry_space_group_name_H-M	'P 1'

loop_
_symmetry_equiv_pos_as_xyz
  x,y,z

loop_
_atom_site_label
_atom_site_type_symbol
_atom_site_fract_x
_atom_site_fract_y
_atom_site_fract_z
_atom_site_charge
C 	C 	0.27185 0.04293 0.85332 0.46300
C 	C 	0.71119 0.00064 0.13877 0.33900
C 	C 	0.78890 0.50034 0.86125 0.32200
C 	C 	0.22579 0.53812 0.14448 0.42500
C 	C 	0.54609 0.72605 0.96218 0.00700
C 	C 	0.49439 0.72309 0.02485 -0.01200
C 	C 	0.00666 0.22440 0.97477 -0.03700
C 	C 	0.95503 0.22457 0.03751 0.02400
C 	C 	0.31026 0.55271 0.96524 -0.00200
C 	C 	0.70371 0.51094 0.04147 0.01800
C 	C 	0.79641 0.01150 0.95862 0.10500
C 	C 	0.19933 0.02819 0.03686 0.02800
C 	C 	0.30335 0.53973 0.03861 0.00600
C 	C 	0.71483 0.48155 0.97012 -0.02300
C 	C 	0.78538 0.98235 0.03002 -0.10700
C 	C 	0.20359 0.01169 0.96350 0.03300
C 	C 	0.23764 0.56212 0.06948 -0.12200
C 	C 	0.77496 0.52738 0.93561 -0.07200
C 	C 	0.72522 0.02792 0.06446 -0.02200
C 	C 	0.25177 0.08200 0.92409 -0.13400
C 	C 	0.17824 0.59004 0.02608 0.00400
C 	C 	0.82489 0.59738 0.97356 -0.02500
C 	C 	0.67517 0.09742 0.02643 -0.04400
C 	C 	0.29195 0.17365 0.95762 0.01100
C 	C 	0.18474 0.60033 0.95341 0.00100
C 	C 	0.81428 0.62533 0.04375 0.01800
C 	C 	0.68563 0.12494 0.95615 0.04200
C 	C 	0.28884 0.18814 0.03032 0.00600
C 	C 	0.25112 0.58659 0.92271 -0.11800
C 	C 	0.75337 0.58428 0.07833 -0.13200
C 	C 	0.74660 0.08425 0.92164 -0.16500
C 	C 	0.24389 0.11366 0.07084 -0.12400
C 	C 	0.46574 0.72718 0.52791 0.00300
C 	C 	0.47287 0.73158 0.45521 0.00500
C 	C 	0.96893 0.22381 0.52823 0.01000
C 	C 	0.97542 0.22747 0.45547 0.00100
C 	C 	0.50191 0.83562 0.42389 -0.11800
C 	C 	0.48522 0.82825 0.57061 -0.11600
C 	C 	0.99925 0.33457 0.42284 -0.08800
C 	C 	0.98318 0.32871 0.56974 -0.10500
C 	C 	0.51900 0.93930 0.46572 -0.02200
C 	C 	0.51050 0.93558 0.53918 -0.02300
C 	C 	0.00969 0.44214 0.46323 -0.01400
C 	C 	0.00123 0.43934 0.53673 -0.00300
C 	C 	0.47244 0.82158 0.85437 0.42500
C 	C 	0.56092 0.81712 0.13744 0.30800
C 	C 	0.93898 0.31703 0.86254 0.30100
C 	C 	0.02761 0.32153 0.14559 0.41400
C 	C 	0.18577 0.62198 0.53867 0.00800
C 	C 	0.79300 0.68506 0.47395 0.00700
C 	C 	0.70829 0.18733 0.52575 0.00700
C 	C 	0.32652 0.08111 0.45136 0.06800
C 	C 	0.18476 0.62418 0.46619 0.00700
C 	C 	0.79244 0.67943 0.54660 0.00900
C 	C 	0.70879 0.18072 0.45309 0.01700
C 	C 	0.33771 0.05285 0.52239 -0.07200
C 	C 	0.24126 0.57361 0.42867 -0.12600
C 	C 	0.74755 0.59591 0.57936 -0.12700
C 	C 	0.75256 0.09516 0.42077 -0.14200
C 	C 	0.28213 0.00559 0.56211 0.04700
C 	C 	0.30022 0.52430 0.46511 0.00800
C 	C 	0.69505 0.53300 0.53977 0.00900
C 	C 	0.80385 0.03016 0.46078 0.03800
C 	C 	0.21766 0.97304 0.52811 -0.13700
C 	C 	0.30314 0.52936 0.53877 0.00800
C 	C 	0.69379 0.54221 0.46628 0.00800
C 	C 	0.80478 0.03943 0.53423 0.02800
C 	C 	0.20577 0.00423 0.45717 0.13000
C 	C 	0.24696 0.58323 0.57523 -0.12600
C 	C 	0.74469 0.61482 0.43317 -0.12400
C 	C 	0.75519 0.11495 0.56690 -0.12700
C 	C 	0.25883 0.06563 0.42004 -0.17700
C 	C 	0.26081 0.63526 0.85147 0.42400
C 	C 	0.73952 0.63584 0.14831 0.42700
C 	C 	0.76045 0.13582 0.85166 0.44200
C 	C 	0.23778 0.14191 0.14614 0.43100
C 	C 	0.29163 0.99405 0.63884 0.22300
C 	C 	0.73013 0.04897 0.35241 0.47200
C 	C 	0.76986 0.54920 0.64766 0.43600
C 	C 	0.22793 0.54441 0.35509 0.43500
C 	C 	0.46770 0.82306 0.64545 0.42400
C 	C 	0.52964 0.82430 0.35277 0.42800
C 	C 	0.96672 0.32305 0.64491 0.42900
C 	C 	0.02898 0.32418 0.35239 0.40800
C 	C 	0.25895 0.63333 0.64505 0.43300
C 	C 	0.73901 0.64112 0.35834 0.43600
C 	C 	0.76095 0.14120 0.64169 0.44000
C 	C 	0.24144 0.13259 0.35500 0.45000
C 	C 	0.49300 0.92497 0.02698 -0.03700
C 	C 	0.54445 0.92797 0.96366 -0.01900
C 	C 	0.95424 0.42647 0.03673 0.02000
C 	C 	0.00558 0.42627 0.97332 -0.04100
C 	C 	0.44869 0.82406 0.98923 0.01000
C 	C 	0.59066 0.82684 0.99994 -0.02700
C 	C 	0.90918 0.32404 0.00017 -0.03500
C 	C 	0.05120 0.32673 0.01063 0.00900
C 	C 	0.50072 0.82711 0.92730 -0.11700
C 	C 	0.53861 0.82389 0.06192 -0.06200
C 	C 	0.96116 0.32383 0.93810 -0.03900
C 	C 	0.99926 0.32699 0.07266 -0.10500
Cr	Cr	0.22963 0.83590 0.74735 1.53200
Cr	Cr	0.77037 0.83590 0.25265 1.53400
Cr	Cr	0.72963 0.33590 0.74735 1.53500
Cr	Cr	0.27037 0.33590 0.25265 1.53800
Cr	Cr	0.38741 0.98985 0.75085 1.52500
Cr	Cr	0.61259 0.98985 0.24915 1.52300
Cr	Cr	0.88741 0.48985 0.75085 1.53100
Cr	Cr	0.11259 0.48985 0.24915 1.53600
Cr	Cr	0.38580 0.67712 0.74934 1.53700
Cr	Cr	0.61420 0.67712 0.25066 1.53300
Cr	Cr	0.88580 0.17712 0.74934 1.53600
Cr	Cr	0.11420 0.17712 0.25066 1.53800
H 	H 	0.38993 0.82293 0.98335 0.02800
H 	H 	0.64936 0.82570 0.00541 0.03200
H 	H 	0.85048 0.32111 0.99470 0.03900
H 	H 	0.10997 0.32767 0.01639 0.03400
H 	H 	0.14089 0.66152 0.56567 0.03000
H 	H 	0.83118 0.74605 0.45008 0.03400
H 	H 	0.67125 0.25057 0.54935 0.03600
H 	H 	0.36920 0.12468 0.42290 0.02300
H 	H 	0.13768 0.66093 0.43992 0.03100
H 	H 	0.83198 0.73152 0.57654 0.03000
H 	H 	0.67018 0.23415 0.42280 0.03000
H 	H 	0.38842 0.07479 0.54728 0.06100
H 	H 	0.35030 0.49699 0.56677 0.03000
H 	H 	0.65402 0.49209 0.43558 0.02900
H 	H 	0.84336 0.98732 0.56526 0.00400
H 	H 	0.15371 0.98876 0.43333 -0.02000
H 	H 	0.36231 0.54268 0.94254 0.03400
H 	H 	0.65590 0.47971 0.06692 0.02600
H 	H 	0.84427 0.98055 0.93322 -0.01300
H 	H 	0.16259 0.97313 0.06698 0.00600
H 	H 	0.34913 0.51422 0.07112 0.02700
H 	H 	0.67612 0.42533 0.94185 0.03900
H 	H 	0.82417 0.92650 0.05835 0.05500
H 	H 	0.17210 0.93986 0.93846 0.01000
H 	H 	0.12598 0.60244 0.04798 0.03300
H 	H 	0.87274 0.63118 0.94917 0.03900
H 	H 	0.62729 0.13098 0.05079 0.04900
H 	H 	0.32877 0.22991 0.92828 0.03300
H 	H 	0.13839 0.62578 0.92169 0.03000
H 	H 	0.85369 0.68285 0.07011 0.02800
H 	H 	0.64612 0.18200 0.92968 0.02400
H 	H 	0.32159 0.25910 0.05456 0.03700
H 	H 	0.44412 0.64415 0.55048 0.03600
H 	H 	0.45926 0.65090 0.42400 0.03200
H 	H 	0.95191 0.13814 0.55171 0.04200
H 	H 	0.96605 0.14389 0.42536 0.04400
H 	H 	0.54237 0.02044 0.44240 0.05700
H 	H 	0.52403 0.01525 0.57123 0.05000
H 	H 	0.02795 0.52614 0.43876 0.03300
H 	H 	0.00984 0.52217 0.56766 0.02600
O 	O 	0.21427 0.70900 0.82747 -0.49400
O 	O 	0.78573 0.70900 0.17253 -0.50000
O 	O 	0.71427 0.20900 0.82747 -0.50200
O 	O 	0.28573 0.20900 0.17253 -0.49300
O 	O 	0.44595 0.91944 0.67652 -0.54800
O 	O 	0.55405 0.91944 0.32348 -0.54200
O 	O 	0.94595 0.41944 0.67652 -0.52600
O 	O 	0.05405 0.41944 0.32348 -0.53200
O 	O 	0.45673 0.71763 0.66984 -0.49500
O 	O 	0.54327 0.71763 0.33016 -0.49000
O 	O 	0.95673 0.21763 0.66984 -0.48500
O 	O 	0.04327 0.21763 0.33016 -0.48700
O 	O 	0.32062 0.62564 0.67292 -0.53700
O 	O 	0.67938 0.62564 0.32708 -0.53400
O 	O 	0.82062 0.12564 0.67292 -0.53100
O 	O 	0.17938 0.12564 0.32708 -0.53100
O 	O 	0.33428 0.83429 0.74918 -0.75900
O 	O 	0.66572 0.83429 0.25082 -0.76600
O 	O 	0.83428 0.33429 0.74918 -0.76300
O 	O 	0.16572 0.33429 0.25082 -0.75100
O 	O 	0.23616 0.95849 0.82313 -0.55900
O 	O 	0.76384 0.95849 0.17687 -0.51400
O 	O 	0.73616 0.45849 0.82313 -0.49400
O 	O 	0.26384 0.45849 0.17687 -0.53300
O 	O 	0.33208 0.07547 0.83128 -0.48600
O 	O 	0.66792 0.07547 0.16872 -0.44700
O 	O 	0.83208 0.57547 0.83128 -0.45500
O 	O 	0.16792 0.57547 0.16872 -0.49600
O 	O 	0.44630 0.91811 0.82662 -0.54100
O 	O 	0.55370 0.91811 0.17338 -0.50200
O 	O 	0.94630 0.41811 0.82662 -0.48700
O 	O 	0.05370 0.41811 0.17338 -0.53600
O 	O 	0.45711 0.71620 0.83176 -0.49300
O 	O 	0.54289 0.71620 0.16824 -0.44700
O 	O 	0.95711 0.21620 0.83176 -0.43400
O 	O 	0.04289 0.21620 0.16824 -0.49000
O 	O 	0.32098 0.62431 0.82303 -0.53300
O 	O 	0.67902 0.62431 0.17697 -0.54000
O 	O 	0.82098 0.12431 0.82303 -0.53800
O 	O 	0.17902 0.12431 0.17697 -0.52800
O 	O 	0.21389 0.71043 0.66554 -0.50100
O 	O 	0.78611 0.71043 0.33446 -0.49500
O 	O 	0.71389 0.21043 0.66554 -0.49500
O 	O 	0.28611 0.21043 0.33446 -0.49400
O 	O 	0.23581 0.95982 0.67302 -0.47400
O 	O 	0.76419 0.95982 0.32698 -0.56300
O 	O 	0.73581 0.45982 0.67302 -0.53700
O 	O 	0.26419 0.45982 0.32698 -0.53500
O 	O 	0.33170 0.07690 0.66935 -0.40100
O 	O 	0.66830 0.07690 0.33065 -0.49100
O 	O 	0.83170 0.57690 0.66935 -0.49400
O 	O 	0.16830 0.57690 0.33065 -0.50000
H 	H 	0.34316 0.48113 0.43694 0.03000
H 	H 	0.65858 0.47045 0.56495 0.03000
H 	H 	0.83951 0.96596 0.43595 0.00700
H 	H 	0.17485 0.93134 0.55723 0.06500
H 	H 	0.47126 0.00636 0.05464 0.05900
H 	H 	0.56173 0.01092 0.93475 0.04700
H 	H 	0.93613 0.50821 0.06617 0.02500
H 	H 	0.02576 0.50895 0.94573 0.03500
H 	H 	0.56792 0.64487 0.93437 0.02900
H 	H 	0.47340 0.63882 0.05024 0.03700
H 	H 	0.02871 0.14131 0.94908 0.04700
H 	H 	0.93421 0.14223 0.06507 0.03500
