data_crystal

_cell_length_a 21.78379
_cell_length_b 7.19120
_cell_length_c 18.53381
_cell_angle_alpha 90.01156
_cell_angle_beta  96.11225
_cell_angle_gamma 90.00145

_symmetry_space_group_name_	'P 1'
_symmetry_space_group_name_H-M	'P 1'

loop_
_symmetry_equiv_pos_as_xyz
  x,y,z

loop_
_atom_site_label
_atom_site_type_symbol
_atom_site_fract_x
_atom_site_fract_y
_atom_site_fract_z
_atom_site_charge
O 	O 	0.44965 0.50650 0.41448 -0.45000
O 	O 	0.55035 0.00650 0.58552 -0.45800
O 	O 	0.43201 0.17315 0.56025 -0.43900
O 	O 	0.56799 0.67315 0.43975 -0.43800
C 	C 	0.41593 0.34456 0.58058 0.44400
C 	C 	0.58407 0.84454 0.41942 0.45000
O 	O 	0.44232 0.17665 0.41348 -0.46100
O 	O 	0.55768 0.67665 0.58652 -0.46100
O 	O 	0.56073 0.00838 0.43770 -0.42900
O 	O 	0.43927 0.50838 0.56230 -0.42300
C 	C 	0.42841 0.34525 0.38744 0.42400
C 	C 	0.57158 0.84528 0.61256 0.43100
O 	O 	0.53884 0.33986 0.50812 -0.57000
O 	O 	0.46116 0.83986 0.49188 -0.56600
V 	V 	0.49280 0.06422 0.49849 1.80800
V 	V 	0.50720 0.56422 0.50151 1.80900
C 	C 	0.87351 0.90284 0.68875 -0.08800
C 	C 	0.12651 0.40384 0.31126 -0.08700
H 	H 	0.96071 0.90961 0.75280 0.01600
H 	H 	0.03929 0.41059 0.24722 0.01600
H 	H 	0.89630 0.89234 0.63996 0.05900
H 	H 	0.10372 0.39377 0.36008 0.05700
C 	C 	0.88607 0.93599 0.81925 -0.19500
C 	C 	0.11394 0.43614 0.18073 -0.19300
C 	C 	0.58651 0.81880 0.74585 0.34400
C 	C 	0.41345 0.31800 0.25417 0.34200
C 	C 	0.62356 0.79891 0.81125 0.13000
C 	C 	0.37638 0.29783 0.18880 0.12900
C 	C 	0.68754 0.81795 0.81452 0.29600
C 	C 	0.31241 0.31717 0.18552 0.29500
C 	C 	0.71618 0.87057 0.75225 -0.05200
C 	C 	0.28381 0.37040 0.24775 -0.05200
C 	C 	0.67823 0.87600 0.68427 0.12700
C 	C 	0.32177 0.37616 0.31572 0.12600
C 	C 	0.78157 0.90193 0.75400 -0.04600
C 	C 	0.21843 0.40204 0.24599 -0.04500
C 	C 	0.80858 0.90212 0.68709 0.03900
C 	C 	0.19143 0.40286 0.31291 0.03700
C 	C 	0.77030 0.90304 0.62012 0.03500
C 	C 	0.22972 0.40412 0.37987 0.03600
C 	C 	0.70613 0.89649 0.62001 -0.08600
C 	C 	0.29390 0.39726 0.37997 -0.08700
C 	C 	0.82140 0.93677 0.81930 0.38100
C 	C 	0.17861 0.43658 0.18067 0.38000
C 	C 	0.91130 0.91360 0.75391 0.08000
C 	C 	0.08871 0.41434 0.24610 0.07900
C 	C 	0.61300 0.85194 0.68156 -0.19100
C 	C 	0.38699 0.35178 0.31844 -0.19000
H 	H 	0.67788 0.89960 0.56825 0.08600
H 	H 	0.32216 0.40063 0.43172 0.08500
C 	C 	0.64004 0.72105 0.31723 0.48000
C 	C 	0.35994 0.22102 0.68272 0.47900
C 	C 	0.63434 0.85584 0.37115 -0.29400
C 	C 	0.36567 0.35589 0.62886 -0.29800
C 	C 	0.67596 0.00546 0.37777 0.41100
C 	C 	0.32409 0.50561 0.62231 0.41600
C 	C 	0.72335 0.01909 0.33222 -0.09600
C 	C 	0.27670 0.51921 0.66784 -0.09200
C 	C 	0.72852 0.88682 0.27696 0.11000
C 	C 	0.27149 0.38686 0.72306 0.10600
C 	C 	0.68632 0.73715 0.26932 -0.22500
C 	C 	0.31367 0.23713 0.73064 -0.22500
C 	C 	0.76568 0.16415 0.34166 -0.08600
C 	C 	0.23439 0.66432 0.65845 -0.08500
C 	C 	0.81329 0.18083 0.29798 0.33400
C 	C 	0.18677 0.68097 0.70212 0.33400
C 	C 	0.81944 0.05362 0.24017 -0.14600
C 	C 	0.18058 0.55369 0.75988 -0.14200
C 	C 	0.77549 0.90553 0.22939 0.05400
C 	C 	0.22452 0.40556 0.77062 0.04900
C 	C 	0.77810 0.77655 0.17156 -0.08100
C 	C 	0.22189 0.27653 0.82841 -0.07800
C 	C 	0.73590 0.62293 0.16521 -0.04500
C 	C 	0.26408 0.12288 0.83471 -0.05400
C 	C 	0.69087 0.60643 0.21402 0.37800
C 	C 	0.30910 0.10636 0.78590 0.37400
C 	C 	0.86796 0.06755 0.19385 0.14700
C 	C 	0.13206 0.56759 0.80620 0.14900
C 	C 	0.86820 0.94379 0.13379 -0.21200
C 	C 	0.13181 0.44377 0.86621 -0.21600
C 	C 	0.82243 0.80619 0.12208 0.36900
C 	C 	0.17756 0.30615 0.87789 0.36700
H 	H 	0.76263 0.26633 0.38415 0.12300
H 	H 	0.23746 0.76656 0.61601 0.12500
O 	O 	0.06082 0.29005 0.93780 -0.44800
O 	O 	0.93918 0.79005 0.06220 -0.44600
O 	O 	0.05769 0.61662 0.08654 -0.47100
O 	O 	0.94231 0.11662 0.91346 -0.47800
C 	C 	0.07190 0.44820 0.11252 0.42600
C 	C 	0.92811 0.94817 0.88748 0.43300
O 	O 	0.06801 0.61989 0.93977 -0.47700
O 	O 	0.93199 0.11989 0.06023 -0.48100
O 	O 	0.94964 0.78794 0.91446 -0.47400
O 	O 	0.05036 0.28794 0.08554 -0.47400
C 	C 	0.08342 0.45198 0.91783 0.41900
C 	C 	0.91658 0.95199 0.08218 0.42300
O 	O 	0.96121 0.45308 0.99194 -0.59300
O 	O 	0.03879 0.95308 0.00806 -0.59100
V 	V 	0.00720 0.72882 0.00150 1.80400
V 	V 	0.99280 0.22882 0.99850 1.80400
F 	F 	0.67111 0.13699 0.42966 -0.44200
F 	F 	0.32899 0.63727 0.57050 -0.44000
F 	F 	0.85187 0.32604 0.31405 -0.47100
F 	F 	0.14821 0.82621 0.68608 -0.46900
C 	C 	0.92136 0.20436 0.21022 -0.08300
C 	C 	0.90523 0.39932 0.18026 -0.13100
H 	H 	0.89868 0.39891 0.12022 0.09700
H 	H 	0.86224 0.45254 0.19952 0.10600
H 	H 	0.94280 0.49850 0.19784 0.07600
H 	H 	0.93650 0.20917 0.26917 0.08800
H 	H 	0.96388 0.15552 0.18821 0.06000
C 	C 	0.07867 0.70441 0.78987 -0.08400
C 	C 	0.09474 0.89926 0.82002 -0.13200
H 	H 	0.10183 0.89823 0.88003 0.09900
H 	H 	0.13742 0.95344 0.80031 0.10800
H 	H 	0.05690 0.99802 0.80309 0.07700
H 	H 	0.06355 0.70948 0.73091 0.08900
H 	H 	0.03614 0.65536 0.81179 0.06000
F 	F 	0.82065 0.70789 0.05940 -0.43000
F 	F 	0.17931 0.20777 0.94053 -0.43100
C 	C 	0.73743 0.46867 0.10912 0.02100
C 	C 	0.69602 0.51538 0.03977 -0.18300
H 	H 	0.64706 0.52301 0.05122 0.15400
H 	H 	0.70916 0.65075 0.01716 0.17800
H 	H 	0.70032 0.40527 0.99860 0.14400
H 	H 	0.78478 0.43511 0.09716 0.08000
H 	H 	0.72131 0.33516 0.13076 0.08200
C 	C 	0.26256 0.96864 0.89080 0.04000
C 	C 	0.30393 0.01548 0.96017 -0.20400
H 	H 	0.35290 0.02315 0.94874 0.15600
H 	H 	0.29078 0.15087 0.98277 0.18200
H 	H 	0.29962 0.90542 0.00134 0.15300
H 	H 	0.21520 0.93500 0.90272 0.07800
H 	H 	0.27871 0.83514 0.86917 0.08000
F 	F 	0.65058 0.46137 0.20650 -0.38900
F 	F 	0.34937 0.96127 0.79337 -0.38300
C 	C 	0.79570 0.91608 0.54711 -0.06200
C 	C 	0.81262 0.72440 0.51992 -0.14700
H 	H 	0.84835 0.65748 0.55857 0.07200
H 	H 	0.77104 0.63398 0.51308 0.08500
H 	H 	0.83093 0.73849 0.46650 0.07900
H 	H 	0.76082 0.97797 0.50616 0.07900
H 	H 	0.83579 0.01188 0.54928 0.04900
C 	C 	0.20434 0.41787 0.45287 -0.07000
C 	C 	0.18738 0.22648 0.48029 -0.14400
H 	H 	0.15163 0.15934 0.44172 0.07000
H 	H 	0.22894 0.13601 0.48720 0.08300
H 	H 	0.16910 0.24108 0.53370 0.07600
H 	H 	0.23924 0.48003 0.49374 0.07900
H 	H 	0.16428 0.51375 0.45062 0.05500
F 	F 	0.79871 0.98960 0.88155 -0.38600
F 	F 	0.20131 0.48885 0.11837 -0.38700
F 	F 	0.52454 0.79459 0.74447 -0.35100
F 	F 	0.47541 0.29344 0.25556 -0.35300
F 	F 	0.72063 0.76031 0.87654 -0.35800
F 	F 	0.27928 0.25922 0.12356 -0.35900
F 	F 	0.59742 0.75092 0.87185 -0.31100
F 	F 	0.40249 0.24924 0.12823 -0.31200
F 	F 	0.59884 0.57850 0.30998 -0.38000
F 	F 	0.40110 0.07840 0.68992 -0.38300
