data_crystal

_cell_length_a 27.84967
_cell_length_b 8.67596
_cell_length_c 7.42699
_cell_angle_alpha 103.25552
_cell_angle_beta  94.02428
_cell_angle_gamma 92.47724

_symmetry_space_group_name_	'P 1'
_symmetry_space_group_name_H-M	'P 1'

loop_
_symmetry_equiv_pos_as_xyz
  x,y,z

loop_
_atom_site_label
_atom_site_type_symbol
_atom_site_fract_x
_atom_site_fract_y
_atom_site_fract_z
_atom_site_charge
C 	C 	0.49856 0.19950 0.45294 0.33800
C 	C 	0.50149 0.80051 0.54705 0.35000
C 	C 	0.10072 0.50663 0.49626 0.07800
C 	C 	0.89696 0.52152 0.47562 0.08200
C 	C 	0.12280 0.36136 0.44242 -0.11400
C 	C 	0.87489 0.66105 0.56114 -0.12400
C 	C 	0.09354 0.22081 0.37182 0.12300
C 	C 	0.90474 0.79836 0.64782 0.12300
C 	C 	0.12981 0.64874 0.55565 -0.08200
C 	C 	0.86789 0.38407 0.38711 -0.08500
C 	C 	0.35385 0.49657 0.50676 -0.15800
C 	C 	0.64522 0.50396 0.49048 -0.16800
C 	C 	0.96949 0.37499 0.40015 0.01500
C 	C 	0.02820 0.65645 0.55542 0.01200
C 	C 	0.97727 0.65798 0.56022 0.03600
C 	C 	0.02050 0.36913 0.41607 0.03600
C 	C 	0.94806 0.51834 0.47864 -0.04100
C 	C 	0.04963 0.51060 0.48946 -0.03900
C 	C 	0.93896 0.24207 0.30691 -0.05600
C 	C 	0.05866 0.79649 0.61345 -0.05900
C 	C 	0.88927 0.24680 0.30101 0.01500
C 	C 	0.10837 0.79226 0.61339 0.01000
C 	C 	0.40727 0.49869 0.50244 0.35900
C 	C 	0.59242 0.50068 0.49724 0.37200
C 	C 	0.04344 0.22575 0.36103 -0.11000
C 	C 	0.95460 0.79477 0.64644 -0.10700
C 	C 	0.49789 0.03143 0.42652 -0.07200
C 	C 	0.50223 0.96857 0.57346 -0.11400
C 	C 	0.17365 0.36243 0.46050 0.21700
C 	C 	0.82391 0.65574 0.55834 0.21700
C 	C 	0.17996 0.64487 0.55271 0.20100
C 	C 	0.81773 0.38626 0.38648 0.20300
C 	C 	0.28188 0.55752 0.67517 -0.02200
C 	C 	0.72444 0.44299 0.60781 -0.02600
C 	C 	0.33281 0.55573 0.67533 0.17700
C 	C 	0.67367 0.43512 0.61248 0.18300
C 	C 	0.32404 0.43912 0.33992 0.15800
C 	C 	0.66691 0.58043 0.36557 0.16600
C 	C 	0.27334 0.43976 0.34242 0.04100
C 	C 	0.71746 0.58027 0.35552 0.03800
C 	C 	0.25272 0.50153 0.50874 0.08500
C 	C 	0.74564 0.51547 0.47988 0.08800
Cu	Cu	0.50538 0.51738 0.68438 0.92700
Cu	Cu	0.49462 0.48262 0.31562 0.92800
H 	H 	0.46212 0.37821 0.94820 0.10400
H 	H 	0.53784 0.62191 0.05182 0.11200
H 	H 	0.86758 0.14108 0.22886 0.04700
H 	H 	0.13003 0.90305 0.65903 0.04600
H 	H 	0.95219 0.13259 0.23294 0.04800
H 	H 	0.04530 0.91294 0.65456 0.04100
H 	H 	0.02355 0.11299 0.31137 0.05900
H 	H 	0.97481 0.90193 0.72039 0.06200
H 	H 	0.49381 0.95916 0.28519 0.08900
H 	H 	0.50631 0.04085 0.71479 0.10400
N 	N 	0.20096 0.50300 0.50877 -0.16100
N 	N 	0.79702 0.51971 0.47329 -0.16200
N 	N 	0.48651 0.45643 0.03851 -0.17100
N 	N 	0.51349 0.54357 0.96149 -0.18000
O 	O 	0.50350 0.28612 0.61978 -0.37300
O 	O 	0.49650 0.71388 0.38022 -0.37800
O 	O 	0.49441 0.25678 0.30836 -0.37100
O 	O 	0.50559 0.74322 0.69164 -0.37900
O 	O 	0.43481 0.51470 0.65569 -0.36100
O 	O 	0.56519 0.48530 0.34431 -0.36500
O 	O 	0.42572 0.48535 0.34428 -0.35700
O 	O 	0.57428 0.51465 0.65572 -0.36300
O 	O 	0.19587 0.22478 0.43143 -0.17100
O 	O 	0.80094 0.78355 0.64035 -0.19600
O 	O 	0.78967 0.25558 0.30092 -0.18600
O 	O 	0.20759 0.78201 0.59247 -0.18400
O 	O 	0.34525 0.38163 0.17698 -0.25800
H 	H 	0.32459 0.40014 0.07110 0.15200
O 	O 	0.63812 0.65906 0.26128 -0.26800
H 	H 	0.65737 0.74959 0.23676 0.15800
O 	O 	0.24270 0.37994 0.18501 -0.24200
H 	H 	0.25738 0.28880 0.10676 0.15400
O 	O 	0.74059 0.64016 0.22538 -0.24000
H 	H 	0.71761 0.63470 0.11586 0.14700
N 	N 	0.11414 0.07235 0.30214 -0.17700
H 	H 	0.10049 0.98977 0.37079 0.08600
H 	H 	0.10255 0.03304 0.16133 0.09400
N 	N 	0.88632 0.94505 0.73993 -0.19900
H 	H 	0.86416 0.98760 0.64498 0.10600
H 	H 	0.86728 0.92692 0.85043 0.10300
O 	O 	0.65051 0.36014 0.73093 -0.26800
H 	H 	0.67412 0.32006 0.81182 0.15400
O 	O 	0.36301 0.61332 0.83525 -0.26600
H 	H 	0.34435 0.65259 0.94287 0.15200
N 	N 	0.75542 0.37638 0.72890 -0.16400
H 	H 	0.75045 0.43097 0.86651 0.09400
H 	H 	0.74644 0.25472 0.70485 0.09900
N 	N 	0.25869 0.61407 0.84233 -0.16200
H 	H 	0.26821 0.54635 0.93715 0.09200
H 	H 	0.27001 0.73295 0.89831 0.09800
