data_crystal

_cell_length_a 16.67688
_cell_length_b 16.87996
_cell_length_c 16.90110
_cell_angle_alpha 65.87974
_cell_angle_beta  65.92905
_cell_angle_gamma 65.93788

_symmetry_space_group_name_	'P 1'
_symmetry_space_group_name_H-M	'P 1'

loop_
_symmetry_equiv_pos_as_xyz
  x,y,z

loop_
_atom_site_label
_atom_site_type_symbol
_atom_site_fract_x
_atom_site_fract_y
_atom_site_fract_z
_atom_site_charge
O 	O 	0.98294 0.13895 0.51016 -0.48000
O 	O 	0.01706 0.86105 0.48984 -0.48100
O 	O 	0.13895 0.51016 0.98294 -0.48300
O 	O 	0.86105 0.48984 0.01706 -0.49100
O 	O 	0.51016 0.98294 0.13895 -0.48800
O 	O 	0.48984 0.01706 0.86105 -0.49200
O 	O 	0.48984 0.86105 0.01706 -0.49100
O 	O 	0.51016 0.13895 0.98294 -0.49000
O 	O 	0.01706 0.48984 0.86105 -0.48300
O 	O 	0.98294 0.51016 0.13895 -0.47800
O 	O 	0.86105 0.01706 0.48984 -0.48200
O 	O 	0.13895 0.98294 0.51016 -0.49100
C 	C 	0.32643 0.94947 0.45915 0.09600
C 	C 	0.66886 0.06508 0.53933 0.09800
C 	C 	0.94926 0.46086 0.32317 0.10400
C 	C 	0.01624 0.55751 0.67900 0.09300
C 	C 	0.46265 0.32694 0.93900 0.09800
C 	C 	0.56322 0.68340 0.00458 0.10200
C 	C 	0.53807 0.05730 0.67421 0.10000
C 	C 	0.43391 0.00116 0.31456 0.07900
C 	C 	0.67489 0.53924 0.04971 0.10300
C 	C 	0.33000 0.46061 0.93708 0.09700
C 	C 	0.04955 0.67741 0.53827 0.09800
C 	C 	0.99851 0.31706 0.43296 0.11100
O 	O 	0.86770 0.02588 0.61234 -0.45300
O 	O 	0.13230 0.97412 0.38766 -0.47400
O 	O 	0.02588 0.61234 0.86770 -0.45400
O 	O 	0.97412 0.38766 0.13230 -0.46400
O 	O 	0.61234 0.86770 0.02588 -0.46100
O 	O 	0.38766 0.13230 0.97412 -0.47400
O 	O 	0.38766 0.97412 0.13230 -0.46100
O 	O 	0.61234 0.02588 0.86770 -0.47300
O 	O 	0.13230 0.38766 0.97412 -0.45700
O 	O 	0.86770 0.61234 0.02588 -0.47300
O 	O 	0.97412 0.13230 0.38766 -0.45900
O 	O 	0.02588 0.86770 0.61234 -0.46400
C 	C 	0.97652 0.17751 0.43163 0.45700
C 	C 	0.03816 0.82084 0.56162 0.43900
C 	C 	0.17964 0.43821 0.96132 0.45100
C 	C 	0.82040 0.56075 0.03966 0.44200
C 	C 	0.43135 0.97713 0.17736 0.47400
C 	C 	0.56197 0.03837 0.82049 0.45200
C 	C 	0.56806 0.82204 0.02447 0.47700
C 	C 	0.43820 0.17965 0.96096 0.44900
C 	C 	0.02611 0.56709 0.82171 0.45200
C 	C 	0.96098 0.43862 0.17921 0.43800
C 	C 	0.82026 0.03859 0.56187 0.44800
C 	C 	0.17967 0.96080 0.43886 0.43900
C 	C 	0.40334 0.98204 0.40963 -0.06000
C 	C 	0.58146 0.05172 0.58501 -0.07300
C 	C 	0.97967 0.41228 0.40078 -0.07800
C 	C 	0.02850 0.59469 0.58469 -0.06900
C 	C 	0.41872 0.41510 0.94750 -0.07100
C 	C 	0.59618 0.58861 0.02022 -0.07500
C 	C 	0.27975 0.93943 0.41059 -0.24200
C 	C 	0.71957 0.06468 0.59032 -0.22900
C 	C 	0.93984 0.41074 0.27803 -0.24200
C 	C 	0.03486 0.60101 0.72474 -0.22600
C 	C 	0.41092 0.27934 0.93462 -0.24200
C 	C 	0.60340 0.72605 0.03085 -0.24000
C 	C 	0.58920 0.06351 0.72127 -0.24500
C 	C 	0.39497 0.97280 0.27242 -0.22800
C 	C 	0.72040 0.58800 0.06146 -0.24600
C 	C 	0.28013 0.41016 0.93499 -0.22900
C 	C 	0.05898 0.72211 0.58898 -0.23800
C 	C 	0.97133 0.27338 0.39479 -0.23400
Zn	Zn	0.00488 0.00488 0.58359 1.19000
Zn	Zn	0.99512 0.99512 0.41641 1.19300
Zn	Zn	0.00488 0.58359 0.00488 1.18900
Zn	Zn	0.99512 0.41641 0.99512 1.19300
Zn	Zn	0.58359 0.00488 0.00488 1.18800
Zn	Zn	0.41641 0.99512 0.99512 1.19100
C 	C 	0.44288 0.06392 0.71003 0.00500
C 	C 	0.50477 0.04429 0.26669 0.01200
C 	C 	0.06051 0.71176 0.44295 0.00900
C 	C 	0.04252 0.27015 0.50289 -0.00600
C 	C 	0.70581 0.44356 0.06493 0.00400
C 	C 	0.29644 0.55580 0.92459 0.00900
C 	C 	0.29945 0.92693 0.55507 0.00700
C 	C 	0.69899 0.08616 0.44343 0.00700
C 	C 	0.55902 0.29322 0.92606 0.00800
C 	C 	0.49017 0.73111 0.96461 0.00700
C 	C 	0.92913 0.55733 0.29370 0.00600
C 	C 	0.98957 0.47611 0.72161 0.01200
C 	C 	0.32415 0.93364 0.32339 0.28600
C 	C 	0.67514 0.07744 0.67505 0.28500
C 	C 	0.93353 0.32340 0.32322 0.28700
C 	C 	0.06717 0.67618 0.67575 0.28100
C 	C 	0.32494 0.32569 0.92082 0.28400
C 	C 	0.67513 0.67510 0.06855 0.29000
C 	C 	0.66039 0.06043 0.39951 -0.01600
C 	C 	0.33004 0.96298 0.59728 -0.02100
C 	C 	0.01425 0.41845 0.66887 -0.02200
C 	C 	0.96417 0.59993 0.32499 -0.01400
C 	C 	0.43072 0.68436 0.97694 -0.01800
C 	C 	0.60071 0.32692 0.95974 -0.02000
C 	C 	0.56446 0.03405 0.31232 -0.02300
C 	C 	0.40546 0.02590 0.67683 -0.01500
C 	C 	0.33404 0.59556 0.95535 -0.01500
C 	C 	0.67663 0.40477 0.02424 -0.01400
C 	C 	0.02956 0.31668 0.56273 -0.01100
C 	C 	0.02146 0.68064 0.40434 -0.02000
C 	C 	0.70383 0.05313 0.30931 0.01300
C 	C 	0.28449 0.97008 0.68719 0.01800
C 	C 	0.03187 0.32328 0.70491 0.02100
C 	C 	0.97259 0.68983 0.28046 0.01500
C 	C 	0.33663 0.72668 0.98269 0.02100
C 	C 	0.68889 0.28020 0.97488 0.02100
C 	C 	0.65624 0.03605 0.26747 0.02600
C 	C 	0.32264 0.00102 0.72691 0.01100
C 	C 	0.28705 0.68062 0.97399 0.01300
C 	C 	0.72686 0.31964 0.00649 0.01100
C 	C 	0.03791 0.27220 0.65231 0.01500
C 	C 	0.99860 0.73089 0.32162 0.02200
C 	C 	0.53021 0.02267 0.40555 -0.00700
C 	C 	0.45048 0.01736 0.58863 -0.01300
C 	C 	0.01226 0.41137 0.52902 -0.01900
C 	C 	0.00916 0.59405 0.44882 -0.00800
C 	C 	0.42135 0.54814 0.96903 -0.00700
C 	C 	0.59414 0.45342 0.00085 -0.01400
C 	C 	0.57672 0.03776 0.44903 -0.00900
C 	C 	0.40926 0.99294 0.54705 -0.00400
C 	C 	0.46769 0.59185 0.98358 -0.00600
C 	C 	0.55304 0.41237 0.97560 -0.00300
C 	C 	0.01432 0.45965 0.57845 -0.00200
C 	C 	0.98884 0.55108 0.40601 -0.00800
C 	C 	0.44772 0.99885 0.45438 0.01600
C 	C 	0.53574 0.03671 0.54045 0.02000
C 	C 	0.99370 0.45835 0.44503 0.02900
C 	C 	0.01694 0.54971 0.53723 0.01600
C 	C 	0.46487 0.45894 0.96287 0.01700
C 	C 	0.55255 0.54422 0.00202 0.01900
O 	O 	0.29573 0.89484 0.28532 -0.30700
H 	H 	0.26473 0.85037 0.33474 0.15000
O 	O 	0.71878 0.10033 0.71291 -0.30800
H 	H 	0.67160 0.14545 0.74383 0.14900
O 	O 	0.89526 0.28439 0.29510 -0.31200
H 	H 	0.84988 0.33340 0.26463 0.14800
O 	O 	0.10287 0.70639 0.71523 -0.31000
H 	H 	0.14939 0.73546 0.66654 0.14700
O 	O 	0.28156 0.28816 0.89705 -0.30900
H 	H 	0.32913 0.25423 0.85441 0.14900
O 	O 	0.70390 0.71339 0.10671 -0.30800
H 	H 	0.73450 0.66380 0.15127 0.15000
C 	C 	0.27875 0.99885 0.82545 -0.15500
H 	H 	0.25273 0.93923 0.86417 0.05000
H 	H 	0.32810 0.99021 0.85832 0.03500
H 	H 	0.22135 0.06150 0.83195 0.04400
C 	C 	0.70708 0.00573 0.18275 -0.17900
H 	H 	0.76568 0.94442 0.19492 0.05800
H 	H 	0.66499 0.98555 0.16190 0.05400
H 	H 	0.73252 0.06068 0.12709 0.05000
C 	C 	0.98856 0.83165 0.28407 -0.15700
H 	H 	0.92992 0.86841 0.25504 0.05100
H 	H 	0.97183 0.86178 0.33823 0.03900
H 	H 	0.05238 0.84406 0.23086 0.04300
C 	C 	0.04712 0.17220 0.69418 -0.16100
H 	H 	0.01743 0.15372 0.76883 0.04600
H 	H 	0.00894 0.15088 0.66961 0.04000
H 	H 	0.12104 0.13490 0.67720 0.05400
C 	C 	0.82567 0.27667 0.00873 -0.15500
H 	H 	0.86835 0.24992 0.95008 0.04700
H 	H 	0.85760 0.32630 0.00098 0.03400
H 	H 	0.83004 0.22102 0.07249 0.04500
C 	C 	0.18338 0.71530 0.99794 -0.13900
H 	H 	0.15511 0.73317 0.06219 0.04400
H 	H 	0.16182 0.77567 0.94292 0.04100
H 	H 	0.15183 0.66274 0.01200 0.03200
C 	C 	0.19107 0.95320 0.73780 -0.15800
H 	H 	0.14885 0.99068 0.78880 0.04700
H 	H 	0.14932 0.97870 0.69078 0.03700
H 	H 	0.19935 0.87994 0.77331 0.05100
C 	C 	0.80241 0.05621 0.26115 -0.15700
H 	H 	0.83737 0.02638 0.20417 0.04600
H 	H 	0.80435 0.12752 0.23191 0.04900
H 	H 	0.84451 0.01710 0.30900 0.04200
C 	C 	0.74055 0.18653 0.96209 -0.16000
H 	H 	0.79469 0.14813 0.99665 0.04800
H 	H 	0.69309 0.14440 0.99134 0.03900
H 	H 	0.77521 0.19207 0.88922 0.05200
C 	C 	0.28595 0.80609 0.02224 -0.16100
H 	H 	0.26681 0.77926 0.09727 0.05700
H 	H 	0.32765 0.85165 0.00197 0.04100
H 	H 	0.22216 0.84813 0.00271 0.04400
C 	C 	0.96453 0.73835 0.18496 -0.14900
H 	H 	0.00326 0.78912 0.14746 0.04000
H 	H 	0.99514 0.68966 0.14466 0.04000
H 	H 	0.89165 0.77420 0.18666 0.04800
C 	C 	0.05808 0.27490 0.79247 -0.16600
H 	H 	0.12395 0.22061 0.78158 0.05500
H 	H 	0.06923 0.32028 0.81692 0.05500
H 	H 	0.00446 0.24437 0.84602 0.04500
C 	C 	0.37917 0.14281 0.74816 -0.14600
H 	H 	0.35121 0.12118 0.82270 0.04700
H 	H 	0.41548 0.19315 0.72965 0.05900
H 	H 	0.32055 0.17911 0.71883 0.05700
C 	C 	0.49571 0.12651 0.18445 -0.15300
H 	H 	0.55480 0.11660 0.12415 0.05100
H 	H 	0.43132 0.14369 0.16828 0.07100
H 	H 	0.49274 0.18660 0.19854 0.06400
C 	C 	0.13929 0.75183 0.38097 -0.14600
H 	H 	0.11560 0.82560 0.34862 0.04600
H 	H 	0.18600 0.73979 0.41896 0.06000
H 	H 	0.18091 0.71811 0.32662 0.05800
C 	C 	0.12898 0.19163 0.48927 -0.14700
H 	H 	0.12051 0.12678 0.54046 0.05300
H 	H 	0.15000 0.18302 0.42118 0.06800
H 	H 	0.18677 0.20501 0.49364 0.06200
C 	C 	0.74071 0.38359 0.14672 -0.14700
H 	H 	0.81637 0.35747 0.12862 0.04900
H 	H 	0.71740 0.42136 0.19647 0.05800
H 	H 	0.71234 0.32478 0.18210 0.05500
C 	C 	0.24939 0.61662 0.85084 -0.14900
H 	H 	0.25382 0.57771 0.80902 0.07300
H 	H 	0.17614 0.65113 0.87797 0.05500
H 	H 	0.28439 0.66948 0.80415 0.05700
C 	C 	0.26532 0.84396 0.60898 -0.15100
H 	H 	0.19002 0.86248 0.63880 0.05300
H 	H 	0.28368 0.80066 0.56572 0.06000
H 	H 	0.29885 0.80107 0.66353 0.05700
C 	C 	0.74385 0.16236 0.39043 -0.15300
H 	H 	0.73473 0.20130 0.43443 0.07200
H 	H 	0.81834 0.13702 0.35890 0.06300
H 	H 	0.71059 0.21186 0.33712 0.05800
C 	C 	0.61652 0.25366 0.84748 -0.15000
H 	H 	0.64664 0.17948 0.87091 0.05000
H 	H 	0.57485 0.26753 0.80357 0.05900
H 	H 	0.67210 0.28623 0.80347 0.05900
C 	C 	0.50253 0.80852 0.87807 -0.15200
H 	H 	0.44930 0.87240 0.88610 0.05500
H 	H 	0.57079 0.81922 0.85606 0.07300
H 	H 	0.49830 0.79321 0.82211 0.06500
C 	C 	0.84802 0.61286 0.25594 -0.14900
H 	H 	0.86986 0.64410 0.18187 0.05200
H 	H 	0.80473 0.57029 0.27034 0.06000
H 	H 	0.80315 0.66707 0.28928 0.06100
C 	C 	0.90284 0.47260 0.80031 -0.14900
H 	H 	0.91755 0.41540 0.85994 0.04500
H 	H 	0.86994 0.53686 0.81922 0.07300
H 	H 	0.85163 0.46285 0.78154 0.06400
