data_crystal

_cell_length_a 7.24141
_cell_length_b 14.79681
_cell_length_c 22.56443
_cell_angle_alpha 90.00012
_cell_angle_beta  90.00794
_cell_angle_gamma 88.92402

_symmetry_space_group_name_	'P 1'
_symmetry_space_group_name_H-M	'P 1'

loop_
_symmetry_equiv_pos_as_xyz
  x,y,z

loop_
_atom_site_label
_atom_site_type_symbol
_atom_site_fract_x
_atom_site_fract_y
_atom_site_fract_z
_atom_site_charge
O 	O 	0.39081 0.84481 0.44734 -0.47300
O 	O 	0.10919 0.15519 0.94734 -0.47300
O 	O 	0.89081 0.65519 0.55266 -0.47400
O 	O 	0.60919 0.34481 0.05266 -0.47400
O 	O 	0.72055 0.65582 0.44042 -0.47500
O 	O 	0.77945 0.34418 0.94042 -0.47500
O 	O 	0.22055 0.84418 0.55958 -0.47700
O 	O 	0.27945 0.15582 0.05958 -0.47800
C 	C 	0.55364 0.62653 0.42618 0.33600
C 	C 	0.94634 0.37347 0.92618 0.33600
C 	C 	0.05077 0.87329 0.57380 0.33800
C 	C 	0.44925 0.12671 0.07380 0.33900
O 	O 	0.72053 0.84413 0.44042 -0.47900
O 	O 	0.77947 0.15587 0.94042 -0.47900
O 	O 	0.22053 0.65587 0.55958 -0.47400
O 	O 	0.27947 0.34413 0.05958 -0.47500
O 	O 	0.89083 0.84481 0.55266 -0.47100
O 	O 	0.60917 0.15519 0.05266 -0.47100
O 	O 	0.39083 0.65519 0.44734 -0.47200
O 	O 	0.10917 0.34481 0.94734 -0.47200
C 	C 	0.55079 0.87345 0.42632 0.34300
C 	C 	0.94919 0.12655 0.92632 0.34400
C 	C 	0.05371 0.62677 0.57397 0.34000
C 	C 	0.44631 0.37324 0.07397 0.34100
O 	O 	0.55731 0.74998 0.53682 -0.60900
O 	O 	0.94269 0.25002 0.03682 -0.60600
O 	O 	0.05731 0.75002 0.46318 -0.60900
O 	O 	0.44269 0.24998 0.96318 -0.60800
V 	V 	0.83216 0.74998 0.49317 1.80100
V 	V 	0.66784 0.25002 0.99317 1.80000
V 	V 	0.33216 0.75002 0.50683 1.80100
V 	V 	0.16784 0.24998 0.00683 1.80000
C 	C 	0.85548 0.60147 0.85748 -0.06600
C 	C 	0.64398 0.39846 0.35753 -0.06700
C 	C 	0.52082 0.89312 0.13606 -0.06700
C 	C 	0.98022 0.10693 0.63607 -0.06600
H 	H 	0.82393 0.72177 0.77111 0.04200
H 	H 	0.67527 0.27811 0.27119 0.04300
H 	H 	0.58370 0.76965 0.21879 0.04200
H 	H 	0.91771 0.23045 0.71879 0.04200
H 	H 	0.79775 0.66613 0.87148 0.04700
H 	H 	0.70144 0.33375 0.37156 0.04700
H 	H 	0.54266 0.82538 0.11881 0.04700
H 	H 	0.95890 0.17471 0.61882 0.04700
C 	C 	0.94689 0.44804 0.88272 -0.08000
C 	C 	0.55303 0.55197 0.38272 -0.08200
C 	C 	0.46393 0.05204 0.11686 -0.08300
C 	C 	0.03618 0.94794 0.61687 -0.08300
C 	C 	0.12776 0.46827 0.59805 0.01700
C 	C 	0.37269 0.53179 0.09800 0.01700
C 	C 	0.50974 0.03616 0.40722 0.01800
C 	C 	0.98954 0.96380 0.90721 0.01800
C 	C 	0.15296 0.39709 0.63756 -0.04600
C 	C 	0.34774 0.60302 0.13748 -0.04500
C 	C 	0.47993 0.10985 0.37000 -0.04500
C 	C 	0.01905 0.89009 0.87000 -0.04500
C 	C 	0.10786 0.40755 0.69718 -0.02600
C 	C 	0.39273 0.59255 0.19712 -0.02700
C 	C 	0.47390 0.09840 0.30874 -0.02600
C 	C 	0.02533 0.90154 0.80874 -0.02700
C 	C 	0.03130 0.48973 0.71887 -0.00900
C 	C 	0.46888 0.51030 0.21885 -0.00700
C 	C 	0.50123 0.01218 0.28273 -0.00600
C 	C 	0.99857 0.98780 0.78273 -0.00600
C 	C 	0.00394 0.56265 0.67775 0.05500
C 	C 	0.49602 0.43734 0.17775 0.05500
C 	C 	0.53395 0.93669 0.32135 0.05500
C 	C 	0.96620 0.06332 0.82135 0.05500
C 	C 	0.98282 0.50217 0.78004 -0.00800
C 	C 	0.51718 0.49784 0.28004 -0.01100
C 	C 	0.49585 0.99830 0.21982 -0.01200
C 	C 	0.00420 0.00169 0.71982 -0.01300
C 	C 	0.90769 0.58716 0.79827 0.03300
C 	C 	0.59195 0.41279 0.29831 0.03400
C 	C 	0.52449 0.90938 0.19734 0.03500
C 	C 	0.97620 0.09066 0.69734 0.03600
C 	C 	0.88265 0.65723 0.75731 -0.04300
C 	C 	0.61682 0.34269 0.25737 -0.04400
C 	C 	0.55847 0.83710 0.23596 -0.04400
C 	C 	0.94250 0.16296 0.73596 -0.04500
C 	C 	0.93063 0.64550 0.69816 -0.04800
C 	C 	0.56898 0.35444 0.19820 -0.04800
C 	C 	0.56218 0.85025 0.29689 -0.04600
C 	C 	0.93852 0.14980 0.79689 -0.04600
C 	C 	0.00293 0.43316 0.82378 -0.00100
C 	C 	0.49721 0.56688 0.32376 0.00100
C 	C 	0.46527 0.06930 0.17813 0.00400
C 	C 	0.03445 0.93066 0.67814 0.00400
C 	C 	0.87306 0.53230 0.89905 0.02000
C 	C 	0.62652 0.46765 0.39909 0.02100
C 	C 	0.49166 0.96388 0.09625 0.02200
C 	C 	0.00914 0.03615 0.59626 0.02000
C 	C 	0.05434 0.55139 0.61716 -0.09600
C 	C 	0.44576 0.44862 0.11715 -0.09600
C 	C 	0.53627 0.94938 0.38385 -0.09600
C 	C 	0.96360 0.05062 0.88384 -0.09500
H 	H 	0.16897 0.45897 0.55224 0.03400
H 	H 	0.33161 0.54111 0.05217 0.03400
H 	H 	0.50975 0.04669 0.45475 0.03300
H 	H 	0.98929 0.95326 0.95475 0.03300
H 	H 	0.21132 0.33348 0.62203 0.04100
H 	H 	0.28969 0.66669 0.12192 0.04100
H 	H 	0.45869 0.17654 0.38884 0.04000
H 	H 	0.03983 0.82337 0.88884 0.04000
H 	H 	0.90861 0.70204 0.66839 0.05500
H 	H 	0.59084 0.29787 0.16844 0.05500
H 	H 	0.58875 0.79192 0.32480 0.05100
H 	H 	0.91220 0.20815 0.82479 0.05100
H 	H 	0.82710 0.54423 0.94412 0.03300
H 	H 	0.67232 0.45569 0.44418 0.03300
H 	H 	0.49301 0.95001 0.04910 0.03200
H 	H 	0.00815 0.05005 0.54911 0.03200
H 	H 	0.05562 0.36651 0.81327 0.03700
H 	H 	0.44476 0.63357 0.31323 0.03700
H 	H 	0.44583 0.13870 0.19155 0.03400
H 	H 	0.05339 0.86123 0.69156 0.03400
H 	H 	0.13675 0.35024 0.72525 0.03700
H 	H 	0.36409 0.64992 0.22517 0.03800
H 	H 	0.44612 0.15838 0.28304 0.03700
H 	H 	0.05284 0.84154 0.78305 0.03700
