data_crystal

_cell_length_a 27.80530
_cell_length_b 8.67468
_cell_length_c 7.43147
_cell_angle_alpha 103.04305
_cell_angle_beta  94.08432
_cell_angle_gamma 92.45695

_symmetry_space_group_name_	'P 1'
_symmetry_space_group_name_H-M	'P 1'

loop_
_symmetry_equiv_pos_as_xyz
  x,y,z

loop_
_atom_site_label
_atom_site_type_symbol
_atom_site_fract_x
_atom_site_fract_y
_atom_site_fract_z
_atom_site_charge
O 	O 	0.50350 0.28612 0.61978 -0.37500
O 	O 	0.49650 0.71388 0.38022 -0.37500
O 	O 	0.49441 0.25678 0.30836 -0.37000
O 	O 	0.50559 0.74322 0.69164 -0.37100
C 	C 	0.49853 0.19961 0.45313 0.34400
C 	C 	0.50147 0.80039 0.54687 0.34400
O 	O 	0.43481 0.51470 0.65569 -0.37400
O 	O 	0.56519 0.48530 0.34431 -0.37400
O 	O 	0.42572 0.48535 0.34428 -0.35700
O 	O 	0.57428 0.51465 0.65572 -0.35700
C 	C 	0.40747 0.49479 0.50180 0.34400
C 	C 	0.59253 0.50531 0.49821 0.34400
Cu	Cu	0.50538 0.51738 0.68438 0.92800
Cu	Cu	0.49462 0.48262 0.31562 0.92800
C 	C 	0.17535 0.35321 0.49816 0.19000
C 	C 	0.82466 0.64748 0.50204 0.19000
O 	O 	0.19724 0.21486 0.47189 -0.17900
O 	O 	0.80277 0.78583 0.52797 -0.17900
N 	N 	0.20254 0.49356 0.53184 -0.17900
N 	N 	0.79747 0.50715 0.46853 -0.17900
C 	C 	0.18142 0.63570 0.56475 0.19000
C 	C 	0.81859 0.36501 0.43588 0.19000
C 	C 	0.28491 0.55736 0.68223 -0.10200
C 	C 	0.71511 0.44256 0.31818 -0.10200
C 	C 	0.33475 0.55591 0.67351 0.07000
C 	C 	0.66526 0.44383 0.32684 0.07000
C 	C 	0.32310 0.41490 0.34873 0.15600
C 	C 	0.67686 0.58645 0.65109 0.15600
C 	C 	0.27315 0.42134 0.35856 -0.12800
C 	C 	0.72682 0.58010 0.64136 -0.12800
C 	C 	0.25395 0.49119 0.52449 0.16000
C 	C 	0.74605 0.50951 0.47574 0.16000
C 	C 	0.10217 0.49702 0.52157 0.05800
C 	C 	0.89785 0.50367 0.47895 0.05800
C 	C 	0.12478 0.35234 0.49064 -0.07200
C 	C 	0.87524 0.64836 0.50970 -0.07200
C 	C 	0.09661 0.20999 0.45126 0.00900
C 	C 	0.90341 0.79070 0.54902 0.00900
C 	C 	0.13097 0.64002 0.56164 -0.07100
C 	C 	0.86905 0.36069 0.43901 -0.07100
C 	C 	0.35451 0.48680 0.50724 -0.12300
C 	C 	0.64548 0.51358 0.49282 -0.12300
H 	H 	0.24888 0.36815 0.23778 0.10100
H 	H 	0.75107 0.63394 0.76194 0.10200
H 	H 	0.11313 0.09708 0.42689 0.04700
H 	H 	0.88688 0.90361 0.57328 0.04700
C 	C 	0.97123 0.35453 0.45685 0.01600
C 	C 	0.02879 0.64617 0.54378 0.01600
C 	C 	0.97754 0.64781 0.53161 0.01600
C 	C 	0.02247 0.35288 0.46893 0.01600
C 	C 	0.94911 0.50199 0.48900 -0.02500
C 	C 	0.05091 0.49870 0.51157 -0.02500
C 	C 	0.94099 0.21323 0.41293 -0.05500
C 	C 	0.05903 0.78747 0.58784 -0.05500
C 	C 	0.89105 0.21666 0.40514 0.00900
C 	C 	0.10896 0.78404 0.59565 0.00900
O 	O 	0.79092 0.22836 0.40378 -0.17900
O 	O 	0.20910 0.77235 0.59709 -0.17900
C 	C 	0.04659 0.20984 0.44037 -0.05600
C 	C 	0.95342 0.79085 0.56002 -0.05600
H 	H 	0.64214 0.38827 0.20372 0.04900
H 	H 	0.35790 0.61080 0.79682 0.04900
H 	H 	0.72974 0.38873 0.18912 0.08800
H 	H 	0.27030 0.61066 0.81150 0.08800
H 	H 	0.86968 0.10501 0.37207 0.05100
H 	H 	0.13034 0.89570 0.62880 0.05100
H 	H 	0.95444 0.09664 0.38310 0.04400
H 	H 	0.04558 0.90406 0.61778 0.04400
H 	H 	0.02812 0.09434 0.40885 0.04300
H 	H 	0.97190 0.90634 0.59147 0.04300
C 	C 	0.49780 0.03166 0.42673 -0.09100
C 	C 	0.50220 0.96834 0.57327 -0.09100
H 	H 	0.49365 0.95981 0.28559 0.09800
H 	H 	0.50635 0.04019 0.71441 0.09800
N 	N 	0.48651 0.45643 0.03851 -0.17700
N 	N 	0.51349 0.54357 0.96149 -0.17700
H 	H 	0.46213 0.37819 0.94842 0.10700
H 	H 	0.53787 0.62181 0.05158 0.10700
N 	N 	0.34084 0.32871 0.18049 -0.02500
O 	O 	0.32034 0.33861 0.02086 -0.09500
O 	O 	0.37091 0.21865 0.18618 -0.08500
N 	N 	0.65908 0.67370 0.81874 -0.02500
O 	O 	0.67993 0.66648 0.97887 -0.09500
O 	O 	0.62861 0.78239 0.81164 -0.08500
