data_crystal

_cell_length_a 21.78188
_cell_length_b 7.22651
_cell_length_c 14.87909
_cell_angle_alpha 90.43233
_cell_angle_beta  106.52779
_cell_angle_gamma 90.11786

_symmetry_space_group_name_	'P 1'
_symmetry_space_group_name_H-M	'P 1'

loop_
_symmetry_equiv_pos_as_xyz
  x,y,z

loop_
_atom_site_label
_atom_site_type_symbol
_atom_site_fract_x
_atom_site_fract_y
_atom_site_fract_z
_atom_site_charge
O 	O 	0.33586 0.63819 0.00211 -0.45600
O 	O 	0.66414 0.36181 0.99789 -0.45600
O 	O 	0.16414 0.13819 0.99789 -0.45700
O 	O 	0.83586 0.86181 0.00211 -0.45700
O 	O 	0.21753 0.30592 0.86196 -0.46500
O 	O 	0.78247 0.69408 0.13804 -0.46500
O 	O 	0.28247 0.80592 0.13804 -0.46400
O 	O 	0.71753 0.19408 0.86196 -0.46400
C 	C 	0.20560 0.47576 0.82598 0.32300
C 	C 	0.79440 0.52424 0.17403 0.32300
C 	C 	0.29433 0.97751 0.17390 0.32000
C 	C 	0.70567 0.02249 0.82610 0.32000
O 	O 	0.33869 0.30832 0.99324 -0.46600
O 	O 	0.66131 0.69168 0.00676 -0.46600
O 	O 	0.16131 0.80832 0.00676 -0.46300
O 	O 	0.83869 0.19168 0.99324 -0.46300
O 	O 	0.28617 0.14043 0.13010 -0.45100
O 	O 	0.71383 0.85957 0.86990 -0.45100
O 	O 	0.21383 0.64043 0.86990 -0.45500
O 	O 	0.78617 0.35957 0.13010 -0.45500
C 	C 	0.36451 0.47879 0.99601 0.32800
C 	C 	0.63549 0.52121 0.00399 0.32800
C 	C 	0.13549 0.97861 0.00395 0.32400
C 	C 	0.86451 0.02139 0.99605 0.32400
O 	O 	0.23263 0.47241 0.04475 -0.60000
O 	O 	0.76737 0.52759 0.95525 -0.60000
O 	O 	0.26737 0.97241 0.95525 -0.59700
O 	O 	0.73263 0.02759 0.04475 -0.59700
V 	V 	0.25322 0.19662 0.99170 1.79100
V 	V 	0.74678 0.80338 0.00830 1.79100
V 	V 	0.24678 0.69662 0.00830 1.79200
V 	V 	0.75322 0.30338 0.99170 1.79200
C 	C 	0.03323 0.83416 0.01452 -0.01900
C 	C 	0.96677 0.16584 0.98548 -0.01900
C 	C 	0.46639 0.33403 0.98475 -0.02000
C 	C 	0.53361 0.66597 0.01525 -0.02000
H 	H 	0.05821 0.70500 0.02583 0.06300
H 	H 	0.94179 0.29500 0.97417 0.06300
H 	H 	0.44109 0.20473 0.97287 0.06200
H 	H 	0.55891 0.79527 0.02713 0.06200
C 	C 	0.96762 0.83598 0.00716 0.01100
C 	C 	0.03238 0.16402 0.99284 0.01100
C 	C 	0.53202 0.33569 0.99224 0.01400
C 	C 	0.46798 0.66431 0.00776 0.01400
C 	C 	0.93323 0.00569 0.99477 -0.05800
C 	C 	0.06677 0.99431 0.00524 -0.05800
C 	C 	0.56678 0.50550 0.00531 -0.05600
C 	C 	0.43322 0.49450 0.99469 -0.05600
C 	C 	0.67734 0.01073 0.72477 -0.07800
C 	C 	0.32266 0.98927 0.27523 -0.07800
C 	C 	0.82256 0.52121 0.27564 -0.07700
C 	C 	0.17744 0.47879 0.72436 -0.07700
C 	C 	0.68793 0.95462 0.56997 -0.06900
C 	C 	0.31207 0.04537 0.43003 -0.06900
C 	C 	0.81369 0.58240 0.43104 -0.06800
C 	C 	0.18631 0.41762 0.56896 -0.06800
C 	C 	0.71576 0.97515 0.66603 0.02600
C 	C 	0.28424 0.02485 0.33397 0.02600
C 	C 	0.78542 0.56773 0.33485 0.02300
C 	C 	0.21458 0.43228 0.66515 0.02300
C 	C 	0.61096 0.02543 0.68771 0.00500
C 	C 	0.38904 0.97457 0.31229 0.00500
C 	C 	0.88827 0.49020 0.31257 0.00400
C 	C 	0.11173 0.50979 0.68743 0.00400
C 	C 	0.58116 0.00306 0.59036 -0.01700
C 	C 	0.41884 0.99694 0.40964 -0.01700
C 	C 	0.91874 0.50920 0.40999 -0.01700
C 	C 	0.08126 0.49080 0.59001 -0.01700
C 	C 	0.62124 0.96740 0.53183 0.04300
C 	C 	0.37876 0.03259 0.46818 0.04300
C 	C 	0.87982 0.55536 0.46888 0.04200
C 	C 	0.12018 0.44465 0.53112 0.04200
C 	C 	0.51326 0.01302 0.54951 0.00900
C 	C 	0.48674 0.98698 0.45049 0.00900
C 	C 	0.98634 0.48762 0.45050 0.00800
C 	C 	0.01366 0.51239 0.54950 0.00800
C 	C 	0.52900 0.95229 0.39568 -0.02900
C 	C 	0.47100 0.04771 0.60432 -0.02900
C 	C 	0.97246 0.55691 0.60466 -0.02900
C 	C 	0.02754 0.44310 0.39534 -0.02900
C 	C 	0.59469 0.94307 0.43572 -0.05300
C 	C 	0.40531 0.05692 0.56429 -0.05300
C 	C 	0.90708 0.57739 0.56500 -0.05300
C 	C 	0.09292 0.42262 0.43500 -0.05300
H 	H 	0.62509 0.91568 0.39074 0.04900
H 	H 	0.37491 0.08432 0.60926 0.04900
H 	H 	0.87753 0.61260 0.61022 0.05000
H 	H 	0.12247 0.38742 0.38978 0.05000
H 	H 	0.41569 0.94869 0.26266 0.03700
H 	H 	0.58431 0.05132 0.73734 0.03700
H 	H 	0.08586 0.54211 0.73733 0.03900
H 	H 	0.91414 0.45787 0.26267 0.03900
H 	H 	0.23283 0.03789 0.30532 0.03700
H 	H 	0.76717 0.96210 0.69468 0.03700
H 	H 	0.26532 0.40551 0.69361 0.03600
H 	H 	0.73468 0.59451 0.30639 0.03600
H 	H 	0.71856 0.92680 0.52541 0.05000
H 	H 	0.28144 0.07319 0.47459 0.05000
H 	H 	0.78399 0.61874 0.47583 0.05000
H 	H 	0.21601 0.38129 0.52417 0.05000
H 	H 	0.51309 0.93091 0.32100 0.04200
H 	H 	0.48691 0.06909 0.67900 0.04200
H 	H 	0.98903 0.57797 0.67934 0.04300
H 	H 	0.01098 0.42205 0.32066 0.04300
C 	C 	0.93739 0.65455 0.00805 0.10300
H 	H 	0.95485 0.56405 0.06769 0.01800
O 	O 	0.89522 0.60125 0.93954 -0.17200
C 	C 	0.06261 0.34545 0.99196 0.10300
H 	H 	0.04515 0.43595 0.93231 0.01800
O 	O 	0.10478 0.39875 0.06046 -0.17200
C 	C 	0.56188 0.15413 0.99098 0.09600
H 	H 	0.54380 0.06125 0.93163 0.01800
O 	O 	0.60437 0.10328 0.05904 -0.16700
C 	C 	0.43812 0.84586 0.00902 0.09600
H 	H 	0.45621 0.93875 0.06837 0.01800
O 	O 	0.39563 0.89672 0.94096 -0.16700
