data_crystal

_cell_length_a 27.85575
_cell_length_b 8.75970
_cell_length_c 7.43304
_cell_angle_alpha 102.85135
_cell_angle_beta  94.26661
_cell_angle_gamma 93.24478

_symmetry_space_group_name_	'P 1'
_symmetry_space_group_name_H-M	'P 1'

loop_
_symmetry_equiv_pos_as_xyz
  x,y,z

loop_
_atom_site_label
_atom_site_type_symbol
_atom_site_fract_x
_atom_site_fract_y
_atom_site_fract_z
_atom_site_charge
C 	C 	0.49902 0.20064 0.45443 0.30100
C 	C 	0.86999 0.35602 0.46589 -0.21500
C 	C 	0.35477 0.50176 0.50816 -0.16700
C 	C 	0.64588 0.49921 0.49373 -0.16300
C 	C 	0.97188 0.35201 0.47026 0.07900
C 	C 	0.03119 0.63222 0.62323 0.08100
C 	C 	0.98008 0.63586 0.60968 0.03500
C 	C 	0.02282 0.35227 0.46494 0.03300
C 	C 	0.95063 0.49516 0.53621 -0.07700
C 	C 	0.05233 0.49172 0.54442 -0.07600
C 	C 	0.94125 0.21272 0.41154 -0.21400
C 	C 	0.50093 0.79936 0.54556 0.30600
C 	C 	0.06207 0.76493 0.71374 -0.20900
C 	C 	0.89148 0.21448 0.40841 0.40500
C 	C 	0.11183 0.76370 0.71610 0.41200
C 	C 	0.40757 0.50120 0.50230 0.36400
C 	C 	0.59264 0.49928 0.49744 0.35700
C 	C 	0.04523 0.21761 0.37960 -0.10800
C 	C 	0.95736 0.77656 0.66612 -0.10900
C 	C 	0.50488 0.03714 0.43155 0.01100
C 	C 	0.49500 0.96283 0.56836 -0.01100
C 	C 	0.17568 0.35951 0.45750 0.24500
C 	C 	0.10344 0.49113 0.54446 0.14800
C 	C 	0.82684 0.63886 0.56448 0.24900
C 	C 	0.18335 0.62708 0.62437 0.27500
C 	C 	0.81963 0.35977 0.46476 0.27300
C 	C 	0.27552 0.56649 0.39592 0.02800
C 	C 	0.71887 0.44508 0.33306 0.03100
C 	C 	0.32572 0.56879 0.38509 0.12000
C 	C 	0.66821 0.44155 0.32821 0.11900
C 	C 	0.33277 0.43492 0.64003 0.29800
C 	C 	0.67543 0.55659 0.66071 0.29400
C 	C 	0.28308 0.43371 0.64966 0.19700
C 	C 	0.89945 0.49740 0.52847 0.14800
C 	C 	0.72537 0.55576 0.66419 0.19600
C 	C 	0.25446 0.49870 0.52806 0.05000
C 	C 	0.74738 0.50070 0.50160 0.04900
C 	C 	0.12496 0.35377 0.45928 -0.13100
C 	C 	0.87769 0.64053 0.58371 -0.13000
C 	C 	0.09519 0.21671 0.37661 0.14300
C 	C 	0.90728 0.78003 0.65562 0.15200
C 	C 	0.13307 0.62860 0.62907 -0.21400
Cu	Cu	0.50538 0.51738 0.68438 0.94100
Cu	Cu	0.49462 0.48262 0.31562 0.93600
F 	F 	0.35918 0.36660 0.75695 -0.36000
F 	F 	0.65626 0.61548 0.82232 -0.36800
F 	F 	0.44978 0.37165 0.92968 -0.31500
F 	F 	0.55010 0.62900 0.07061 -0.39600
F 	F 	0.26248 0.36819 0.77717 -0.35700
F 	F 	0.75273 0.60952 0.82741 -0.36200
F 	F 	0.86462 0.07577 0.34591 -0.44400
F 	F 	0.13887 0.89694 0.80423 -0.43000
H 	H 	0.95456 0.09826 0.37053 0.10900
H 	H 	0.62259 0.46334 0.11047 0.16200
H 	H 	0.36008 0.55835 0.15138 0.14800
H 	H 	0.37384 0.72656 0.31918 0.11700
H 	H 	0.73001 0.27580 0.10928 0.12300
H 	H 	0.73061 0.45951 0.07227 0.14400
H 	H 	0.25674 0.75048 0.28984 0.12300
H 	H 	0.25007 0.57438 0.13628 0.12900
H 	H 	0.49929 0.88572 0.17625 0.13600
H 	H 	0.55582 0.90735 0.29660 0.14200
H 	H 	0.50053 0.11421 0.82368 0.16000
H 	H 	0.04906 0.87224 0.78819 0.11900
H 	H 	0.44404 0.09272 0.70310 0.16000
H 	H 	0.02495 0.11033 0.30793 0.05800
H 	H 	0.97738 0.88865 0.71635 0.06400
H 	H 	0.10035 0.04306 0.14982 0.10800
H 	H 	0.10433 0.98579 0.35303 0.10300
H 	H 	0.89887 0.96480 0.86564 0.12600
H 	H 	0.90081 0.00898 0.65655 0.12900
H 	H 	0.61639 0.28541 0.17023 0.12000
N 	N 	0.20324 0.49473 0.53789 -0.15800
N 	N 	0.24531 0.63191 0.27220 -0.17100
N 	N 	0.52528 0.96352 0.26424 -0.17000
N 	N 	0.47455 0.03645 0.73557 -0.15600
N 	N 	0.79915 0.49985 0.50904 -0.15700
N 	N 	0.48651 0.45643 0.03851 -0.04800
N 	N 	0.51349 0.54357 0.96149 0.03600
N 	N 	0.11506 0.07464 0.28773 -0.17300
N 	N 	0.88707 0.92637 0.72502 -0.17900
N 	N 	0.64085 0.37543 0.15429 -0.19400
N 	N 	0.34615 0.64334 0.25189 -0.19300
N 	N 	0.74186 0.39323 0.16617 -0.16900
O 	O 	0.50350 0.28612 0.61978 -0.33100
O 	O 	0.80495 0.77457 0.59884 -0.11900
O 	O 	0.79114 0.22459 0.42124 -0.13200
O 	O 	0.21239 0.75669 0.70443 -0.12200
O 	O 	0.49650 0.71388 0.38022 -0.34600
O 	O 	0.49441 0.25678 0.30836 -0.34000
O 	O 	0.50559 0.74322 0.69164 -0.32100
O 	O 	0.43481 0.51470 0.65569 -0.30500
O 	O 	0.56519 0.48530 0.34431 -0.34900
O 	O 	0.42572 0.48535 0.34428 -0.35800
O 	O 	0.57428 0.51465 0.65572 -0.30500
O 	O 	0.19762 0.23225 0.37511 -0.14000
