data_crystal

_cell_length_a 20.87163
_cell_length_b 7.09554
_cell_length_c 16.40317
_cell_angle_alpha 90.00996
_cell_angle_beta  92.82728
_cell_angle_gamma 89.99317

_symmetry_space_group_name_	'P 1'
_symmetry_space_group_name_H-M	'P 1'

loop_
_symmetry_equiv_pos_as_xyz
  x,y,z

loop_
_atom_site_label
_atom_site_type_symbol
_atom_site_fract_x
_atom_site_fract_y
_atom_site_fract_z
_atom_site_charge
O 	O 	0.56484 0.50529 0.57983 -0.47700
O 	O 	0.43516 0.00529 0.42017 -0.47800
O 	O 	0.55672 0.17993 0.40935 -0.48700
O 	O 	0.44328 0.67993 0.59065 -0.48600
C 	C 	0.57041 0.34507 0.38131 0.38000
C 	C 	0.42960 0.84511 0.61871 0.38200
O 	O 	0.57228 0.17581 0.57853 -0.48700
O 	O 	0.42772 0.67581 0.42147 -0.48600
O 	O 	0.45083 0.00192 0.59054 -0.48400
O 	O 	0.54917 0.50192 0.40946 -0.48200
C 	C 	0.59008 0.34294 0.60504 0.36100
C 	C 	0.40992 0.84293 0.39497 0.36200
O 	O 	0.46013 0.33803 0.50375 -0.62000
O 	O 	0.53987 0.83803 0.49625 -0.61900
V 	V 	0.50740 0.06456 0.49931 1.80600
V 	V 	0.49260 0.56456 0.50069 1.80600
C 	C 	0.14275 0.92711 0.16988 -0.10900
C 	C 	0.85725 0.42711 0.83011 -0.10800
C 	C 	0.35546 0.84111 0.33283 -0.09200
C 	C 	0.64453 0.34111 0.66717 -0.09200
C 	C 	0.29308 0.66780 0.22753 -0.06300
C 	C 	0.70695 0.16775 0.77241 -0.06300
C 	C 	0.34709 0.68415 0.28081 0.02800
C 	C 	0.65293 0.18410 0.71915 0.02800
C 	C 	0.30865 0.98333 0.32963 0.01800
C 	C 	0.69133 0.48337 0.67042 0.01800
C 	C 	0.25290 0.96619 0.27723 -0.02800
C 	C 	0.74707 0.46623 0.72281 -0.02700
C 	C 	0.24534 0.80667 0.22564 0.02700
C 	C 	0.75467 0.30665 0.77434 0.02600
C 	C 	0.19093 0.78928 0.17192 -0.00700
C 	C 	0.80909 0.28925 0.82805 -0.00600
C 	C 	0.14808 0.08080 0.22507 0.12900
C 	C 	0.85188 0.58088 0.77498 0.12800
C 	C 	0.20482 0.10547 0.27577 0.07500
C 	C 	0.79513 0.60556 0.72431 0.07400
H 	H 	0.18683 0.67075 0.13024 0.05100
H 	H 	0.81322 0.17067 0.86968 0.05000
H 	H 	0.28828 0.54487 0.18848 0.05300
H 	H 	0.71178 0.04477 0.81143 0.05200
H 	H 	0.38241 0.57215 0.28177 0.04200
H 	H 	0.61764 0.07207 0.71815 0.04200
H 	H 	0.31462 0.10294 0.37036 0.06000
H 	H 	0.68533 0.60302 0.62973 0.06000
C 	C 	0.38604 0.91987 0.83543 0.13100
C 	C 	0.61395 0.41810 0.16448 0.13100
H 	H 	0.47314 0.88977 0.77282 0.06600
H 	H 	0.52687 0.38799 0.22710 0.06500
H 	H 	0.30520 0.96201 0.95732 0.06500
H 	H 	0.69478 0.45963 0.04254 0.06400
C 	C 	0.39054 0.85689 0.69081 -0.07200
C 	C 	0.60948 0.35667 0.30921 -0.07100
C 	C 	0.08046 0.86716 0.73650 -0.07400
C 	C 	0.91957 0.36882 0.26361 -0.07400
C 	C 	0.11447 0.84023 0.66590 0.15300
C 	C 	0.88558 0.34277 0.33424 0.15300
C 	C 	0.18133 0.84173 0.67185 -0.11000
C 	C 	0.81872 0.34351 0.32830 -0.11000
C 	C 	0.21622 0.88154 0.74613 0.04700
C 	C 	0.78379 0.38198 0.25392 0.04700
C 	C 	0.18080 0.91800 0.81731 -0.02800
C 	C 	0.81919 0.41781 0.18266 -0.02700
C 	C 	0.28525 0.88430 0.75150 -0.01200
C 	C 	0.71476 0.38418 0.24851 -0.01200
C 	C 	0.31778 0.91686 0.82858 -0.00900
C 	C 	0.68222 0.41565 0.17136 -0.01000
C 	C 	0.28197 0.94610 0.89734 -0.08600
C 	C 	0.71802 0.44443 0.10255 -0.08500
C 	C 	0.21520 0.96115 0.89166 0.12700
C 	C 	0.78476 0.46002 0.10824 0.12600
C 	C 	0.32335 0.85628 0.68281 -0.00100
C 	C 	0.67667 0.35663 0.31723 -0.00100
C 	C 	0.42118 0.88574 0.76700 -0.04500
C 	C 	0.57883 0.38445 0.23295 -0.04600
C 	C 	0.11219 0.90653 0.81159 -0.03400
C 	C 	0.88781 0.40684 0.18841 -0.03400
H 	H 	0.30277 0.83810 0.62185 0.04000
H 	H 	0.69725 0.33914 0.37824 0.04000
H 	H 	0.02874 0.85333 0.73365 0.06800
H 	H 	0.97131 0.35545 0.26657 0.06800
H 	H 	0.20444 0.80986 0.61631 0.07600
H 	H 	0.79565 0.31232 0.38394 0.07600
O 	O 	0.95079 0.25667 0.09052 -0.46500
O 	O 	0.04921 0.75667 0.90948 -0.46500
O 	O 	0.92772 0.59037 0.92147 -0.46900
O 	O 	0.07228 0.09037 0.07853 -0.46800
C 	C 	0.91078 0.42317 0.89385 0.37800
C 	C 	0.08922 0.92317 0.10615 0.37600
O 	O 	0.94327 0.58618 0.09064 -0.47000
O 	O 	0.05673 0.08618 0.90936 -0.47100
O 	O 	0.06485 0.75997 0.07984 -0.47300
O 	O 	0.93515 0.25997 0.92016 -0.47300
C 	C 	0.92888 0.41740 0.11748 0.35400
C 	C 	0.07112 0.91735 0.88252 0.35500
O 	O 	0.03985 0.42805 0.99624 -0.62200
O 	O 	0.96015 0.92805 0.00376 -0.62400
V 	V 	0.99261 0.70154 0.00070 1.80500
V 	V 	0.00739 0.20154 0.99930 1.80500
O 	O 	0.08465 0.79304 0.59101 -0.20200
C 	C 	0.03163 0.91144 0.57180 -0.02300
H 	H 	0.04151 0.06168 0.58784 0.04400
H 	H 	0.98833 0.85998 0.60162 0.04200
H 	H 	0.02092 0.90554 0.50492 0.05000
O 	O 	0.91556 0.29717 0.40918 -0.20200
C 	C 	0.96727 0.42016 0.42874 -0.02400
H 	H 	0.95572 0.56968 0.41319 0.04400
H 	H 	0.01111 0.37359 0.39872 0.04300
H 	H 	0.97808 0.41396 0.49560 0.05000
O 	O 	0.18413 0.01466 0.96056 -0.19000
C 	C 	0.19582 0.20859 0.97487 -0.03900
H 	H 	0.17828 0.29556 0.92183 0.05800
H 	H 	0.24743 0.23755 0.98976 0.04500
H 	H 	0.16959 0.25432 0.02846 0.06500
O 	O 	0.81579 0.51336 0.03929 -0.18900
C 	C 	0.80396 0.70717 0.02485 -0.04000
H 	H 	0.82156 0.79446 0.07778 0.05800
H 	H 	0.75231 0.73587 0.01011 0.04500
H 	H 	0.83005 0.75273 0.97113 0.06600
O 	O 	0.09660 0.20242 0.22926 -0.26700
H 	H 	0.09648 0.25658 0.28490 0.14500
O 	O 	0.90334 0.70256 0.77084 -0.26700
H 	H 	0.90338 0.75709 0.71527 0.14500
O 	O 	0.21488 0.26512 0.32299 -0.26600
H 	H 	0.19163 0.37204 0.29635 0.14700
O 	O 	0.78503 0.76527 0.67716 -0.26600
H 	H 	0.80819 0.87223 0.70391 0.14700
O 	O 	0.42045 0.95890 0.90737 -0.27300
H 	H 	0.39892 0.06389 0.93483 0.14800
O 	O 	0.57952 0.45606 0.09244 -0.27500
H 	H 	0.60094 0.56090 0.06477 0.14900
