data_crystal

_cell_length_a 20.12222
_cell_length_b 7.26137
_cell_length_c 13.81047
_cell_angle_alpha 89.99607
_cell_angle_beta  103.51318
_cell_angle_gamma 90.00334

_symmetry_space_group_name_	'P 1'
_symmetry_space_group_name_H-M	'P 1'

loop_
_symmetry_equiv_pos_as_xyz
  x,y,z

loop_
_atom_site_label
_atom_site_type_symbol
_atom_site_fract_x
_atom_site_fract_y
_atom_site_fract_z
_atom_site_charge
O 	O 	0.44956 0.50681 0.59970 -0.46000
O 	O 	0.55044 0.00681 0.40030 -0.46700
O 	O 	0.58796 0.18006 0.59576 -0.49200
O 	O 	0.41204 0.68006 0.40424 -0.49100
C 	C 	0.61554 0.34411 0.61553 0.35800
C 	C 	0.38446 0.84411 0.38448 0.36400
O 	O 	0.45238 0.17743 0.61170 -0.46800
O 	O 	0.54762 0.67743 0.38830 -0.46700
O 	O 	0.41390 0.00189 0.41635 -0.49400
O 	O 	0.58610 0.50189 0.58365 -0.48800
C 	C 	0.43667 0.34603 0.63668 0.33000
C 	C 	0.56333 0.84605 0.36332 0.33700
O 	O 	0.48753 0.33749 0.43589 -0.61200
O 	O 	0.51247 0.83749 0.56411 -0.60800
V 	V 	0.50231 0.06466 0.51189 1.78600
V 	V 	0.49769 0.56466 0.48811 1.78700
C 	C 	0.60220 0.92464 0.11615 -0.02600
C 	C 	0.39783 0.42407 0.88389 -0.02600
H 	H 	0.51156 0.93114 0.17190 0.03500
H 	H 	0.48847 0.43055 0.82816 0.03300
H 	H 	0.57373 0.96034 0.04188 0.04900
H 	H 	0.42631 0.45951 0.95819 0.04800
C 	C 	0.60056 0.85776 0.28559 -0.07500
C 	C 	0.39944 0.35768 0.71441 -0.07400
C 	C 	0.92717 0.84049 0.30721 0.02700
C 	C 	0.07283 0.34062 0.69280 0.02600
C 	C 	0.89230 0.82895 0.38218 -0.05100
C 	C 	0.10769 0.32906 0.61782 -0.05200
C 	C 	0.82141 0.83355 0.35958 -0.01300
C 	C 	0.17858 0.33359 0.64042 -0.01300
C 	C 	0.78270 0.84775 0.25988 -0.02900
C 	C 	0.21729 0.34774 0.74012 -0.03000
C 	C 	0.81826 0.85859 0.18148 0.08100
C 	C 	0.18174 0.35861 0.81852 0.08000
C 	C 	0.70978 0.85746 0.23690 0.02400
C 	C 	0.29022 0.35738 0.76309 0.02400
C 	C 	0.67338 0.89487 0.13786 -0.03900
C 	C 	0.32664 0.39453 0.86215 -0.03900
C 	C 	0.70756 0.89845 0.06072 0.14300
C 	C 	0.29246 0.39812 0.93930 0.14200
C 	C 	0.77890 0.87622 0.08131 -0.09100
C 	C 	0.22110 0.37619 0.91870 -0.09200
C 	C 	0.67129 0.83297 0.30949 -0.01200
C 	C 	0.32871 0.33305 0.69048 -0.01300
C 	C 	0.56626 0.90755 0.18981 0.00500
C 	C 	0.43377 0.40712 0.81023 0.00300
C 	C 	0.89179 0.85663 0.20773 -0.10600
C 	C 	0.10820 0.35669 0.79227 -0.10500
H 	H 	0.69426 0.79420 0.38522 0.04000
H 	H 	0.30573 0.29455 0.61472 0.04000
H 	H 	0.98258 0.83773 0.32705 0.03300
H 	H 	0.01742 0.33790 0.67296 0.03300
H 	H 	0.79870 0.83065 0.42278 0.03600
H 	H 	0.20129 0.33062 0.57721 0.03500
H 	H 	0.92056 0.81844 0.45900 0.04700
H 	H 	0.07943 0.31858 0.54100 0.04600
C 	C 	0.22033 0.02212 0.21555 -0.02100
C 	C 	0.77964 0.52210 0.78451 -0.01500
H 	H 	0.20110 0.15317 0.18397 0.05400
H 	H 	0.79888 0.65314 0.81610 0.05300
C 	C 	0.28559 0.01745 0.27887 -0.00400
C 	C 	0.71439 0.51743 0.72120 0.00100
H 	H 	0.31410 0.14462 0.29412 0.04200
H 	H 	0.68587 0.64457 0.70598 0.04200
C 	C 	0.31396 0.85063 0.32043 -0.08000
C 	C 	0.68603 0.35062 0.67961 -0.08600
C 	C 	0.27333 0.69069 0.30264 0.00500
C 	C 	0.72667 0.19070 0.69737 0.00500
H 	H 	0.29240 0.56070 0.33651 0.04100
H 	H 	0.70761 0.06073 0.66347 0.03900
C 	C 	0.20710 0.69677 0.24169 -0.00500
C 	C 	0.79290 0.19679 0.75832 -0.00500
H 	H 	0.17666 0.57226 0.23172 0.05900
H 	H 	0.82335 0.07230 0.76826 0.05700
C 	C 	0.18108 0.86045 0.19292 -0.05000
C 	C 	0.81891 0.36044 0.80711 -0.05600
O 	O 	0.91392 0.20337 0.91626 -0.46300
O 	O 	0.08608 0.70337 0.08374 -0.46200
O 	O 	0.04762 0.53554 0.88829 -0.45800
O 	O 	0.95238 0.03554 0.11171 -0.46400
C 	C 	0.06547 0.36810 0.86490 0.34600
C 	C 	0.93453 0.86808 0.13510 0.35100
O 	O 	0.91204 0.53278 0.90422 -0.47800
O 	O 	0.08796 0.03278 0.09578 -0.48400
O 	O 	0.94955 0.70816 0.09972 -0.46000
O 	O 	0.05045 0.20816 0.90028 -0.46000
C 	C 	0.88638 0.36487 0.88044 0.32800
C 	C 	0.11362 0.86487 0.11957 0.33400
O 	O 	0.01248 0.37530 0.06406 -0.60400
O 	O 	0.98752 0.87530 0.93594 -0.60300
V 	V 	0.99769 0.64818 0.98811 1.78600
V 	V 	0.00231 0.14818 0.01189 1.78600
O 	O 	0.67100 0.93046 0.96376 -0.21100
C 	C 	0.64599 0.76124 0.91909 0.08900
H 	H 	0.61916 0.67939 0.96670 0.01400
H 	H 	0.68864 0.67741 0.90398 0.02100
C 	C 	0.59512 0.80007 0.82096 -0.19700
H 	H 	0.61976 0.88339 0.77163 0.09300
H 	H 	0.57680 0.66841 0.78311 0.08200
H 	H 	0.55061 0.87729 0.83486 0.08700
O 	O 	0.32905 0.42983 0.03626 -0.21100
C 	C 	0.35389 0.26040 0.08085 0.08800
H 	H 	0.38051 0.17820 0.03311 0.01400
H 	H 	0.31116 0.17705 0.09610 0.02000
C 	C 	0.40494 0.29879 0.17886 -0.19600
H 	H 	0.38055 0.38266 0.22826 0.09100
H 	H 	0.42305 0.16698 0.21672 0.08000
H 	H 	0.44956 0.37527 0.16479 0.08500
C 	C 	0.80909 0.86648 0.99439 0.14300
H 	H 	0.83913 0.74863 0.98355 0.00500
O 	O 	0.79824 0.98824 0.93231 -0.18700
C 	C 	0.19090 0.36693 0.00563 0.14500
H 	H 	0.16079 0.24930 0.01659 0.00400
O 	O 	0.20185 0.48885 0.06760 -0.18900
