data_crystal

_cell_length_a 15.00041
_cell_length_b 8.67378
_cell_length_c 7.45301
_cell_angle_alpha 102.92070
_cell_angle_beta  93.91684
_cell_angle_gamma 92.46768

_symmetry_space_group_name_	'P 1'
_symmetry_space_group_name_H-M	'P 1'

loop_
_symmetry_equiv_pos_as_xyz
  x,y,z

loop_
_atom_site_label
_atom_site_type_symbol
_atom_site_fract_x
_atom_site_fract_y
_atom_site_fract_z
_atom_site_charge
C 	C 	0.49715 0.19977 0.45331 0.35600
C 	C 	0.18251 0.35474 0.46114 0.21200
C 	C 	0.76670 0.50046 0.49102 -0.18200
C 	C 	0.23331 0.49954 0.50898 -0.18200
C 	C 	0.80704 0.35558 0.44431 0.21400
C 	C 	0.19296 0.64442 0.55568 0.21400
C 	C 	0.90066 0.35465 0.44854 -0.04500
C 	C 	0.09934 0.64535 0.55146 -0.04500
C 	C 	0.95288 0.50012 0.49749 0.03800
C 	C 	0.04713 0.49988 0.50251 0.03800
C 	C 	0.91111 0.64583 0.54167 -0.04600
C 	C 	0.50285 0.80023 0.54669 0.35600
C 	C 	0.08889 0.35417 0.45833 -0.04600
C 	C 	0.94338 0.21163 0.40635 -0.00300
C 	C 	0.05662 0.78837 0.59366 -0.00300
C 	C 	0.03597 0.21139 0.41129 -0.00300
C 	C 	0.96403 0.78861 0.58871 -0.00300
C 	C 	0.49579 0.03181 0.42706 -0.06900
C 	C 	0.50421 0.96819 0.57294 -0.06900
C 	C 	0.32935 0.49965 0.50285 0.40300
C 	C 	0.67065 0.50035 0.49715 0.40300
C 	C 	0.81749 0.64526 0.53886 0.21200
Cl	Cl	0.76215 0.82468 0.59501 -0.29200
Cl	Cl	0.23785 0.17532 0.40499 -0.29200
Cl	Cl	0.73883 0.17638 0.38443 -0.28700
Cl	Cl	0.26117 0.82362 0.61557 -0.28700
Cu	Cu	0.51001 0.51738 0.68438 0.93000
Cu	Cu	0.48999 0.48262 0.31562 0.93000
H 	H 	0.90599 0.09812 0.36921 0.07900
H 	H 	0.09401 0.90188 0.63079 0.07900
H 	H 	0.06525 0.09772 0.37745 0.07400
H 	H 	0.93475 0.90228 0.62255 0.07400
H 	H 	0.48794 0.96021 0.28648 0.11200
H 	H 	0.51206 0.03979 0.71352 0.11200
H 	H 	0.43010 0.37778 0.94878 0.11600
H 	H 	0.56990 0.62222 0.05122 0.11600
N 	N 	0.47489 0.45642 0.03852 -0.17200
N 	N 	0.52511 0.54358 0.96148 -0.17200
O 	O 	0.50651 0.28613 0.61977 -0.36200
O 	O 	0.49349 0.71387 0.38023 -0.36200
O 	O 	0.48960 0.25677 0.30836 -0.35400
O 	O 	0.51040 0.74323 0.69164 -0.35400
O 	O 	0.37871 0.51464 0.65572 -0.36200
O 	O 	0.62129 0.48536 0.34428 -0.36200
O 	O 	0.36180 0.48529 0.34430 -0.35700
O 	O 	0.63820 0.51471 0.65570 -0.35700
