data_crystal

_cell_length_a 27.93403
_cell_length_b 18.83814
_cell_length_c 16.66506
_cell_angle_alpha 89.99997
_cell_angle_beta  62.98166
_cell_angle_gamma 90.00000

_symmetry_space_group_name_	'P 1'
_symmetry_space_group_name_H-M	'P 1'

loop_
_symmetry_equiv_pos_as_xyz
  x,y,z

loop_
_atom_site_label
_atom_site_type_symbol
_atom_site_fract_x
_atom_site_fract_y
_atom_site_fract_z
_atom_site_charge
C 	C 	0.29758 0.73433 0.32764 0.35300
C 	C 	0.60243 0.00003 0.49360 0.00500
C 	C 	0.68737 0.72271 0.90979 -0.03100
C 	C 	0.11360 0.81734 0.05014 0.08100
C 	C 	0.87408 0.15727 0.96033 0.09300
C 	C 	0.88640 0.81734 0.94986 0.07600
C 	C 	0.12591 0.15727 0.03968 0.08900
C 	C 	0.61360 0.31734 0.05014 0.07800
C 	C 	0.37409 0.65727 0.96032 0.09000
C 	C 	0.38640 0.31734 0.94986 0.08000
C 	C 	0.62591 0.65727 0.03968 0.09200
C 	C 	0.14621 0.80912 0.09429 0.11300
C 	C 	0.89757 0.50004 0.50640 0.00200
C 	C 	0.83511 0.15039 0.93189 0.12700
C 	C 	0.85379 0.80912 0.90571 0.11600
C 	C 	0.16489 0.15039 0.06811 0.13000
C 	C 	0.64621 0.30912 0.09429 0.11500
C 	C 	0.33511 0.65040 0.93189 0.12900
C 	C 	0.35380 0.30912 0.90571 0.11400
C 	C 	0.66489 0.65040 0.06811 0.12700
C 	C 	0.24106 0.69437 0.79252 0.07900
C 	C 	0.76427 0.31369 0.19935 0.09500
C 	C 	0.75894 0.69437 0.20748 0.07800
C 	C 	0.10243 0.50004 0.49360 0.00200
C 	C 	0.23573 0.31369 0.80065 0.09400
C 	C 	0.74106 0.19437 0.79252 0.07800
C 	C 	0.26427 0.81369 0.19935 0.09400
C 	C 	0.25894 0.19437 0.20748 0.07900
C 	C 	0.73573 0.81369 0.80065 0.09500
C 	C 	0.27862 0.69311 0.82584 0.11400
C 	C 	0.73378 0.32893 0.15266 0.11200
C 	C 	0.72138 0.69311 0.17416 0.11600
C 	C 	0.26622 0.32893 0.84734 0.11300
C 	C 	0.77861 0.19311 0.82585 0.11600
C 	C 	0.60839 0.87418 0.46695 0.14800
C 	C 	0.23378 0.82893 0.15266 0.11300
C 	C 	0.22139 0.19311 0.17415 0.11400
C 	C 	0.76622 0.82893 0.84734 0.11200
C 	C 	0.92937 0.89836 0.06374 0.35900
C 	C 	0.07135 0.10079 0.93558 0.35600
C 	C 	0.07063 0.89836 0.93626 0.35400
C 	C 	0.92865 0.10079 0.06442 0.35100
C 	C 	0.42937 0.39836 0.06374 0.35600
C 	C 	0.57135 0.60079 0.93558 0.35300
C 	C 	0.57063 0.39836 0.93626 0.35700
C 	C 	0.39159 0.12589 0.53315 0.14700
C 	C 	0.42865 0.60079 0.06442 0.35400
C 	C 	0.05373 0.62914 0.48693 -0.05700
C 	C 	0.94628 0.37093 0.51305 -0.05800
C 	C 	0.94627 0.62914 0.51307 -0.05700
C 	C 	0.05372 0.37093 0.48695 -0.05700
C 	C 	0.55373 0.12914 0.48692 -0.05700
C 	C 	0.44628 0.87092 0.51305 -0.05700
C 	C 	0.44627 0.12914 0.51307 -0.05700
C 	C 	0.55372 0.87092 0.48695 -0.05700
C 	C 	0.02659 0.69441 0.49392 0.13000
C 	C 	0.39161 0.87418 0.53305 0.14800
C 	C 	0.97340 0.30565 0.50611 0.13200
C 	C 	0.97341 0.69441 0.50608 0.12900
C 	C 	0.02660 0.30565 0.49389 0.13000
C 	C 	0.52659 0.19441 0.49391 0.13000
C 	C 	0.47340 0.80565 0.50611 0.13100
C 	C 	0.47341 0.19441 0.50608 0.13000
C 	C 	0.52660 0.80565 0.49389 0.13100
C 	C 	0.97381 0.56479 0.50412 0.02700
C 	C 	0.02619 0.43527 0.49589 0.02800
C 	C 	0.02619 0.56479 0.49588 0.02800
C 	C 	0.60841 0.12589 0.46685 0.14700
C 	C 	0.97381 0.43527 0.50411 0.02900
C 	C 	0.47381 0.06479 0.50412 0.02800
C 	C 	0.52619 0.93527 0.49589 0.02500
C 	C 	0.52619 0.06479 0.49588 0.02800
C 	C 	0.47381 0.93527 0.50411 0.02500
C 	C 	0.44796 0.00003 0.50691 0.00300
C 	C 	0.55204 0.00003 0.49309 0.00300
C 	C 	0.94796 0.50004 0.50691 -0.00100
C 	C 	0.05204 0.50004 0.49309 -0.00100
C 	C 	0.37163 0.93554 0.50901 0.03400
C 	C 	0.10839 0.37418 0.46694 0.14800
C 	C 	0.62840 0.06453 0.49089 0.03700
C 	C 	0.62837 0.93554 0.49099 0.03400
C 	C 	0.37160 0.06453 0.50911 0.03700
C 	C 	0.87163 0.43554 0.50901 0.03700
C 	C 	0.12840 0.56453 0.49089 0.03700
C 	C 	0.12837 0.43554 0.49099 0.03700
C 	C 	0.87160 0.56453 0.50911 0.03700
C 	C 	0.32812 0.93532 0.48578 -0.11700
C 	C 	0.67190 0.06471 0.51417 -0.11600
C 	C 	0.67188 0.93532 0.51422 -0.11900
C 	C 	0.89159 0.62589 0.53315 0.14700
C 	C 	0.32810 0.06471 0.48583 -0.11600
C 	C 	0.82812 0.43533 0.48578 -0.11400
C 	C 	0.17189 0.56471 0.51417 -0.11600
C 	C 	0.17188 0.43533 0.51422 -0.11400
C 	C 	0.82810 0.56471 0.48583 -0.11600
C 	C 	0.31208 0.00002 0.46304 0.22800
C 	C 	0.68792 0.00002 0.53696 0.22900
C 	C 	0.81208 0.50002 0.46304 0.22500
C 	C 	0.18792 0.50002 0.53696 0.22500
C 	C 	0.89161 0.37418 0.53305 0.14800
C 	C 	0.70252 0.26629 0.67216 0.34800
C 	C 	0.10841 0.62589 0.46685 0.14700
C 	C 	0.21551 0.75781 0.95778 0.02700
C 	C 	0.78084 0.23606 0.04478 0.03300
C 	C 	0.78449 0.75781 0.04222 0.03200
C 	C 	0.21916 0.23606 0.95522 0.03800
C 	C 	0.71551 0.25781 0.95778 0.03200
C 	C 	0.28084 0.73606 0.04478 0.03700
C 	C 	0.28449 0.25781 0.04222 0.02800
C 	C 	0.71916 0.73606 0.95522 0.03300
C 	C 	0.26297 0.71659 0.91500 -0.01000
C 	C 	0.70242 0.73433 0.67236 0.35400
C 	C 	0.73682 0.28311 0.08252 -0.01200
C 	C 	0.73703 0.71659 0.08500 -0.01200
C 	C 	0.26318 0.28311 0.91748 -0.01400
C 	C 	0.76296 0.21659 0.91500 -0.01200
C 	C 	0.23682 0.78311 0.08252 -0.01400
C 	C 	0.23704 0.21659 0.08500 -0.00900
C 	C 	0.76318 0.78311 0.91748 -0.01200
C 	C 	0.29247 0.69996 0.96322 -0.02200
C 	C 	0.69998 0.28591 0.04483 -0.01800
C 	C 	0.70753 0.69996 0.03678 -0.01800
C 	C 	0.29748 0.26629 0.32784 0.34700
C 	C 	0.30002 0.28591 0.95517 -0.01400
C 	C 	0.79247 0.19996 0.96323 -0.01800
C 	C 	0.19998 0.78592 0.04483 -0.01500
C 	C 	0.20753 0.19996 0.03677 -0.02300
C 	C 	0.80002 0.78592 0.95517 -0.01900
C 	C 	0.13621 0.81246 0.95521 0.06000
C 	C 	0.85899 0.17962 0.04911 0.05800
C 	C 	0.86379 0.81246 0.04479 0.06500
C 	C 	0.14101 0.17962 0.95089 0.06300
C 	C 	0.63621 0.31245 0.95521 0.06300
C 	C 	0.79758 0.23433 0.32764 0.35400
C 	C 	0.35900 0.67963 0.04911 0.06200
C 	C 	0.36379 0.31245 0.04479 0.06100
C 	C 	0.64101 0.67963 0.95089 0.05900
C 	C 	0.11003 0.83780 0.90389 -0.11100
C 	C 	0.88801 0.15973 0.09750 -0.11200
C 	C 	0.88997 0.83780 0.09611 -0.11400
C 	C 	0.11199 0.15973 0.90250 -0.11400
C 	C 	0.61003 0.33780 0.90389 -0.11300
C 	C 	0.38801 0.65973 0.09750 -0.11400
C 	C 	0.38997 0.33780 0.09611 -0.11200
C 	C 	0.20252 0.76629 0.67216 0.34700
C 	C 	0.61199 0.65973 0.90250 -0.11300
C 	C 	0.12697 0.81121 0.81586 0.22700
C 	C 	0.87277 0.18978 0.18328 0.22300
C 	C 	0.87303 0.81121 0.18414 0.22800
C 	C 	0.12723 0.18978 0.81672 0.22400
C 	C 	0.62697 0.31121 0.81586 0.22800
C 	C 	0.37277 0.68978 0.18328 0.22400
C 	C 	0.37303 0.31121 0.18414 0.22700
C 	C 	0.62723 0.68978 0.81672 0.22300
C 	C 	0.17489 0.77167 0.77281 -0.12600
C 	C 	0.20242 0.23433 0.67236 0.35400
C 	C 	0.82452 0.22887 0.22678 -0.11100
C 	C 	0.82511 0.77167 0.22719 -0.12700
C 	C 	0.17548 0.22887 0.77322 -0.11200
C 	C 	0.67489 0.27167 0.77281 -0.12700
C 	C 	0.32452 0.72887 0.22678 -0.11200
C 	C 	0.32511 0.27167 0.22719 -0.12600
C 	C 	0.67548 0.72887 0.77322 -0.11200
C 	C 	0.19996 0.74613 0.82482 0.05300
C 	C 	0.79894 0.25389 0.17468 0.06300
C 	C 	0.80004 0.74613 0.17518 0.05500
C 	C 	0.79748 0.76629 0.32784 0.34800
C 	C 	0.20106 0.25389 0.82532 0.06400
C 	C 	0.69996 0.24613 0.82482 0.05500
C 	C 	0.29894 0.75390 0.17468 0.06400
C 	C 	0.30004 0.24613 0.17518 0.05300
C 	C 	0.70106 0.75389 0.82532 0.06300
C 	C 	0.19905 0.63125 0.51838 0.35600
C 	C 	0.80096 0.36876 0.48160 0.36000
C 	C 	0.80095 0.63125 0.48162 0.35600
C 	C 	0.19904 0.36876 0.51840 0.36000
C 	C 	0.69905 0.13125 0.51838 0.35700
C 	C 	0.39757 0.00003 0.50640 0.00500
C 	C 	0.30096 0.86876 0.48160 0.36000
C 	C 	0.30095 0.13125 0.48162 0.35700
C 	C 	0.69904 0.86876 0.51840 0.36000
C 	C 	0.18423 0.77307 0.91205 -0.03000
C 	C 	0.81263 0.22270 0.09021 -0.02900
C 	C 	0.81577 0.77307 0.08794 -0.03300
C 	C 	0.18737 0.22270 0.90979 -0.03200
C 	C 	0.68422 0.27307 0.91205 -0.03200
C 	C 	0.31263 0.72271 0.09021 -0.03200
C 	C 	0.31577 0.27307 0.08794 -0.03000
Cl	Cl	0.27869 0.00002 0.39401 -0.28200
Cl	Cl	0.84685 0.67549 0.62823 -0.29100
Cl	Cl	0.84683 0.32480 0.62823 -0.29700
Cl	Cl	0.15315 0.67549 0.37177 -0.29100
Cl	Cl	0.08442 0.81906 0.76322 -0.25700
Cl	Cl	0.91794 0.18737 0.23133 -0.25400
Cl	Cl	0.91558 0.81906 0.23678 -0.25700
Cl	Cl	0.08206 0.18737 0.76867 -0.25400
Cl	Cl	0.58442 0.31906 0.76322 -0.25600
Cl	Cl	0.41794 0.68737 0.23134 -0.25500
Cl	Cl	0.41558 0.31906 0.23678 -0.25600
Cl	Cl	0.72132 0.00002 0.60599 -0.28100
Cl	Cl	0.58206 0.68737 0.76867 -0.25500
Cl	Cl	0.04378 0.80464 0.11475 -0.24800
Cl	Cl	0.93908 0.17556 0.87339 -0.23000
Cl	Cl	0.95622 0.80464 0.88524 -0.24900
Cl	Cl	0.06092 0.17556 0.12661 -0.23100
Cl	Cl	0.54378 0.30464 0.11476 -0.24800
Cl	Cl	0.43909 0.67556 0.87339 -0.23100
Cl	Cl	0.45622 0.30464 0.88524 -0.24800
Cl	Cl	0.56091 0.67556 0.12661 -0.23100
Cl	Cl	0.77868 0.50002 0.39401 -0.28400
Cl	Cl	0.22132 0.50002 0.60599 -0.28400
Cl	Cl	0.65317 0.82480 0.37177 -0.29700
Cl	Cl	0.34685 0.17549 0.62823 -0.29100
Cl	Cl	0.34683 0.82480 0.62823 -0.29800
Cl	Cl	0.65315 0.17549 0.37177 -0.29100
Cl	Cl	0.15317 0.32480 0.37177 -0.29700
Cu	Cu	0.20992 0.78529 0.49507 0.91800
Cu	Cu	0.50476 0.50000 0.07585 0.91900
Cu	Cu	0.99524 1.00000 0.92415 0.91600
Cu	Cu	0.00476 0.00000 0.07585 0.91900
Cu	Cu	0.79008 0.21471 0.50493 0.91800
Cu	Cu	0.79008 0.78529 0.50493 0.91800
Cu	Cu	0.20992 0.21471 0.49507 0.91800
Cu	Cu	0.70992 0.28529 0.49507 0.91800
Cu	Cu	0.29008 0.71471 0.50493 0.91800
Cu	Cu	0.29008 0.28529 0.50493 0.91800
Cu	Cu	0.70992 0.71471 0.49507 0.91800
Cu	Cu	0.49524 0.50000 0.92415 0.91900
H 	H 	0.57873 0.74669 0.51031 0.17300
H 	H 	0.80001 0.07870 0.89446 0.16200
H 	H 	0.90837 0.84354 0.79007 0.19000
H 	H 	0.19998 0.07870 0.10554 0.16200
H 	H 	0.59162 0.34354 0.20993 0.19000
H 	H 	0.30002 0.57870 0.89446 0.16100
H 	H 	0.40838 0.34353 0.79007 0.19000
H 	H 	0.69998 0.57870 0.10554 0.16100
H 	H 	0.20627 0.63457 0.73982 0.17500
H 	H 	0.73848 0.39805 0.27623 0.18900
H 	H 	0.79373 0.63457 0.26018 0.17500
H 	H 	0.42139 0.25334 0.48934 0.17300
H 	H 	0.26150 0.39807 0.72381 0.18900
H 	H 	0.70627 0.13457 0.73982 0.17600
H 	H 	0.23846 0.89802 0.27626 0.18900
H 	H 	0.29373 0.13457 0.26018 0.17500
H 	H 	0.76152 0.89806 0.72378 0.18800
H 	H 	0.33541 0.66326 0.70887 0.18700
H 	H 	0.70475 0.40884 0.11505 0.16100
H 	H 	0.66459 0.66326 0.29113 0.18700
H 	H 	0.29525 0.40884 0.88494 0.16200
H 	H 	0.83541 0.16325 0.70888 0.18800
H 	H 	0.42127 0.74669 0.48969 0.17300
H 	H 	0.20475 0.90884 0.11506 0.16100
H 	H 	0.16459 0.16325 0.29113 0.18700
H 	H 	0.79525 0.90884 0.88495 0.16000
H 	H 	0.57861 0.25334 0.51065 0.17300
H 	H 	0.07873 0.24669 0.51031 0.17300
H 	H 	0.92139 0.75334 0.48935 0.17300
H 	H 	0.92127 0.24669 0.48969 0.17300
H 	H 	0.07861 0.75334 0.51065 0.17300
H 	H 	0.09162 0.84352 0.20994 0.19000
O 	O 	0.25504 0.86959 0.47848 -0.33900
O 	O 	0.81795 0.20345 0.37556 -0.34300
O 	O 	0.81795 0.79655 0.37556 -0.34400
O 	O 	0.18205 0.20345 0.62444 -0.34300
O 	O 	0.68205 0.29655 0.62444 -0.34400
O 	O 	0.31795 0.70345 0.37556 -0.34300
O 	O 	0.31795 0.29655 0.37556 -0.34400
O 	O 	0.68205 0.70345 0.62444 -0.34300
O 	O 	0.25053 0.76333 0.36721 -0.34600
O 	O 	0.74947 0.23667 0.63279 -0.35500
O 	O 	0.74947 0.76333 0.63279 -0.34600
O 	O 	0.74496 0.13041 0.52152 -0.34100
O 	O 	0.25053 0.23667 0.36721 -0.35500
O 	O 	0.75053 0.26333 0.36721 -0.34600
O 	O 	0.24947 0.73667 0.63279 -0.35500
O 	O 	0.24947 0.26333 0.63279 -0.34600
O 	O 	0.75053 0.73667 0.36721 -0.35500
O 	O 	0.17726 0.69003 0.51371 -0.35800
O 	O 	0.82274 0.30997 0.48629 -0.35700
O 	O 	0.82274 0.69003 0.48629 -0.35800
O 	O 	0.17726 0.30997 0.51371 -0.35700
O 	O 	0.67726 0.19003 0.51371 -0.35800
O 	O 	0.74496 0.86959 0.52152 -0.33900
O 	O 	0.32274 0.80997 0.48629 -0.35700
O 	O 	0.32274 0.19003 0.48629 -0.35800
O 	O 	0.67726 0.80997 0.51371 -0.35700
O 	O 	0.05164 0.92688 0.88509 -0.33000
O 	O 	0.94836 0.07312 0.11491 -0.32900
O 	O 	0.94836 0.92688 0.11491 -0.33200
O 	O 	0.05164 0.07312 0.88509 -0.33000
O 	O 	0.55164 0.42688 0.88509 -0.33000
O 	O 	0.44836 0.57312 0.11491 -0.33100
O 	O 	0.44836 0.42688 0.11491 -0.33000
O 	O 	0.25504 0.13041 0.47848 -0.34100
O 	O 	0.55164 0.57312 0.88509 -0.33100
O 	O 	0.94062 0.92656 0.98676 -0.35500
O 	O 	0.05938 0.07344 0.01324 -0.34800
O 	O 	0.05938 0.92656 0.01324 -0.35000
O 	O 	0.94062 0.07344 0.98676 -0.34200
O 	O 	0.44062 0.42656 0.98676 -0.35100
O 	O 	0.55938 0.57344 0.01324 -0.34600
O 	O 	0.55938 0.42656 0.01324 -0.35200
O 	O 	0.44062 0.57344 0.98676 -0.34700
O 	O 	0.54975 0.74048 0.49230 -0.22200
O 	O 	0.75504 0.36959 0.47848 -0.33800
O 	O 	0.45029 0.25958 0.50754 -0.22300
O 	O 	0.45025 0.74048 0.50770 -0.22200
O 	O 	0.54972 0.25958 0.49245 -0.22300
O 	O 	0.04975 0.24048 0.49230 -0.22200
O 	O 	0.95029 0.75958 0.50754 -0.22400
O 	O 	0.95025 0.24048 0.50770 -0.22200
O 	O 	0.04972 0.75958 0.49246 -0.22300
O 	O 	0.12450 0.81397 0.18699 -0.23300
O 	O 	0.83721 0.09042 0.88294 -0.22700
O 	O 	0.87550 0.81398 0.81302 -0.23400
O 	O 	0.24496 0.63041 0.52152 -0.34100
O 	O 	0.16279 0.09043 0.11707 -0.22900
O 	O 	0.62450 0.31398 0.18699 -0.23300
O 	O 	0.33721 0.59043 0.88293 -0.22900
O 	O 	0.37550 0.31397 0.81301 -0.23300
O 	O 	0.66279 0.59043 0.11707 -0.22900
O 	O 	0.24241 0.63915 0.73692 -0.23500
O 	O 	0.76755 0.36245 0.25881 -0.22700
O 	O 	0.75759 0.63914 0.26308 -0.23500
O 	O 	0.23245 0.36245 0.74119 -0.22700
O 	O 	0.74241 0.13914 0.73692 -0.23400
O 	O 	0.24496 0.36959 0.52152 -0.33800
O 	O 	0.26754 0.86245 0.25882 -0.22700
O 	O 	0.25759 0.13914 0.26308 -0.23500
O 	O 	0.73245 0.86245 0.74119 -0.22700
O 	O 	0.33085 0.67213 0.77063 -0.22600
O 	O 	0.70655 0.39285 0.17027 -0.24500
O 	O 	0.66915 0.67213 0.22937 -0.22600
O 	O 	0.29345 0.39285 0.82972 -0.24500
O 	O 	0.83085 0.17212 0.77063 -0.22600
O 	O 	0.20655 0.89285 0.17028 -0.24500
O 	O 	0.16915 0.17213 0.22937 -0.22600
O 	O 	0.75504 0.63041 0.47848 -0.34100
O 	O 	0.79345 0.89285 0.82973 -0.24600
O 	O 	0.18205 0.79655 0.62444 -0.34400
