data_crystal

_cell_length_a 21.66513
_cell_length_b 7.18093
_cell_length_c 14.90074
_cell_angle_alpha 90.15612
_cell_angle_beta  106.41870
_cell_angle_gamma 90.04130

_symmetry_space_group_name_	'P 1'
_symmetry_space_group_name_H-M	'P 1'

loop_
_symmetry_equiv_pos_as_xyz
  x,y,z

loop_
_atom_site_label
_atom_site_type_symbol
_atom_site_fract_x
_atom_site_fract_y
_atom_site_fract_z
_atom_site_charge
O 	O 	0.33586 0.63819 0.00211 -0.46500
O 	O 	0.66414 0.36181 0.99789 -0.46500
O 	O 	0.16414 0.13819 0.99789 -0.46500
O 	O 	0.83586 0.86181 0.00211 -0.46600
O 	O 	0.21753 0.30592 0.86196 -0.44700
O 	O 	0.78247 0.69408 0.13804 -0.44700
O 	O 	0.28247 0.80592 0.13804 -0.44600
O 	O 	0.71753 0.19408 0.86196 -0.44600
C 	C 	0.20571 0.47635 0.82587 0.30600
C 	C 	0.79429 0.52365 0.17413 0.30600
C 	C 	0.29425 0.97698 0.17407 0.30200
C 	C 	0.70575 0.02302 0.82593 0.30200
O 	O 	0.33869 0.30832 0.99324 -0.44100
O 	O 	0.66131 0.69168 0.00676 -0.44100
O 	O 	0.16131 0.80832 0.00676 -0.43900
O 	O 	0.83869 0.19168 0.99324 -0.43900
O 	O 	0.28617 0.14043 0.13010 -0.43600
O 	O 	0.71383 0.85957 0.86990 -0.43600
O 	O 	0.21383 0.64043 0.86990 -0.43900
O 	O 	0.78617 0.35957 0.13010 -0.43900
C 	C 	0.36495 0.47696 0.99764 0.37800
C 	C 	0.63504 0.52304 0.00236 0.37800
C 	C 	0.13504 0.97688 0.00233 0.37400
C 	C 	0.86496 0.02312 0.99767 0.37400
O 	O 	0.23263 0.47241 0.04475 -0.59500
O 	O 	0.76737 0.52759 0.95525 -0.59500
O 	O 	0.26737 0.97241 0.95525 -0.59200
O 	O 	0.73263 0.02759 0.04475 -0.59200
V 	V 	0.25322 0.19662 0.99170 1.79600
V 	V 	0.74678 0.80338 0.00830 1.79600
V 	V 	0.24678 0.69662 0.00830 1.79700
V 	V 	0.75322 0.30338 0.99170 1.79700
C 	C 	0.03206 0.82884 0.01805 0.34800
C 	C 	0.96794 0.17116 0.98195 0.34800
C 	C 	0.46775 0.32886 0.98145 0.34700
C 	C 	0.53224 0.67114 0.01855 0.34700
C 	C 	0.96721 0.84224 0.01621 -0.08500
C 	C 	0.03279 0.15776 0.98379 -0.08500
C 	C 	0.53261 0.34218 0.98333 -0.08500
C 	C 	0.46739 0.65782 0.01666 -0.08500
H 	H 	0.94316 0.71764 0.02975 0.12900
H 	H 	0.05684 0.28236 0.97025 0.12900
H 	H 	0.55653 0.21756 0.96943 0.12700
H 	H 	0.44347 0.78244 0.03057 0.12700
C 	C 	0.93402 0.01290 0.99823 -0.12500
C 	C 	0.06598 0.98711 0.00177 -0.12500
C 	C 	0.56599 0.51280 0.00181 -0.12200
C 	C 	0.43401 0.48720 0.99819 -0.12200
C 	C 	0.67765 0.01473 0.72471 0.01100
C 	C 	0.32235 0.98527 0.27529 0.01100
C 	C 	0.82224 0.51847 0.27550 0.01000
C 	C 	0.17776 0.48153 0.72450 0.01000
C 	C 	0.68983 0.01502 0.56875 0.36300
C 	C 	0.31017 0.98495 0.43125 0.36300
C 	C 	0.81130 0.56027 0.43099 0.36200
C 	C 	0.18870 0.43974 0.56902 0.36200
C 	C 	0.71705 0.01883 0.66527 -0.13000
C 	C 	0.28295 0.98115 0.33473 -0.13100
C 	C 	0.78375 0.55150 0.33463 -0.13000
C 	C 	0.21624 0.44850 0.66537 -0.13000
C 	C 	0.61082 0.00741 0.68803 -0.05100
C 	C 	0.38918 0.99260 0.31196 -0.05100
C 	C 	0.88861 0.49499 0.31243 -0.05000
C 	C 	0.11139 0.50500 0.68757 -0.05000
C 	C 	0.58147 0.00529 0.59022 0.05900
C 	C 	0.41853 0.99471 0.40978 0.05900
C 	C 	0.91845 0.50753 0.40999 0.05900
C 	C 	0.08155 0.49247 0.59001 0.05900
C 	C 	0.62248 0.00868 0.53072 -0.09900
C 	C 	0.37752 0.99130 0.46928 -0.09900
C 	C 	0.87826 0.54003 0.46912 -0.09900
C 	C 	0.12173 0.45997 0.53088 -0.09900
C 	C 	0.51310 0.00077 0.54979 0.00800
C 	C 	0.48690 0.99922 0.45021 0.00800
C 	C 	0.98661 0.49170 0.45042 0.00900
C 	C 	0.01339 0.50830 0.54958 0.00900
C 	C 	0.52994 0.00182 0.39442 -0.05000
C 	C 	0.47006 0.99816 0.60558 -0.05000
C 	C 	0.97112 0.53929 0.60504 -0.05100
C 	C 	0.02888 0.46071 0.39496 -0.05100
C 	C 	0.59603 0.00644 0.43395 0.04700
C 	C 	0.40397 0.99353 0.56605 0.04700
C 	C 	0.90523 0.55439 0.56554 0.04700
C 	C 	0.09477 0.44561 0.43446 0.04700
H 	H 	0.62669 0.00862 0.38771 0.08100
H 	H 	0.37331 0.99134 0.61229 0.08100
H 	H 	0.87518 0.57895 0.61149 0.08000
H 	H 	0.12482 0.42105 0.38851 0.08000
H 	H 	0.41645 0.99485 0.26175 0.06300
H 	H 	0.58355 0.00519 0.73825 0.06300
H 	H 	0.08468 0.52780 0.73753 0.06400
H 	H 	0.91531 0.47219 0.26247 0.06400
H 	H 	0.23111 0.97481 0.30625 0.12200
H 	H 	0.76889 0.02516 0.69375 0.12200
H 	H 	0.26762 0.42827 0.69404 0.12200
H 	H 	0.73238 0.57173 0.30596 0.12200
H 	H 	0.51439 0.00052 0.31920 0.06500
H 	H 	0.48561 0.99945 0.68080 0.06500
H 	H 	0.98714 0.55338 0.67993 0.06400
H 	H 	0.01286 0.44662 0.32007 0.06400
F 	F 	0.06126 0.66052 0.03680 -0.42800
F 	F 	0.93874 0.33948 0.96319 -0.42800
F 	F 	0.43836 0.16056 0.96217 -0.43000
F 	F 	0.56164 0.83944 0.03783 -0.43000
F 	F 	0.72941 0.01882 0.51247 -0.41900
F 	F 	0.27059 0.98113 0.48753 -0.41900
F 	F 	0.77253 0.59215 0.48687 -0.42000
F 	F 	0.22747 0.40785 0.51313 -0.42000
