data_crystal

_cell_length_a 7.72093
_cell_length_b 8.58433
_cell_length_c 23.55734
_cell_angle_alpha 90.85560
_cell_angle_beta  86.02604
_cell_angle_gamma 94.20185

_symmetry_space_group_name_	'P 1'
_symmetry_space_group_name_H-M	'P 1'

loop_
_symmetry_equiv_pos_as_xyz
  x,y,z

loop_
_atom_site_label
_atom_site_type_symbol
_atom_site_fract_x
_atom_site_fract_y
_atom_site_fract_z
_atom_site_charge
C 	C 	0.54636 0.79505 0.49848 0.39300
C 	C 	0.34088 0.44494 0.30090 0.07900
C 	C 	0.66434 0.54101 0.75787 -0.09700
C 	C 	0.33542 0.45879 0.24217 -0.09700
C 	C 	0.51594 0.48820 0.79128 0.15100
C 	C 	0.48370 0.51172 0.20873 0.15100
C 	C 	0.57057 0.95876 0.49760 -0.11100
C 	C 	0.42943 0.04124 0.50240 -0.11100
C 	C 	0.50245 0.49894 0.61057 0.36800
C 	C 	0.49754 0.50103 0.38943 0.36800
C 	C 	0.43177 0.37193 0.12080 0.18700
C 	C 	0.45364 0.20495 0.50152 0.39200
C 	C 	0.56767 0.62809 0.87920 0.18700
C 	C 	0.53853 0.64020 0.11822 0.18700
C 	C 	0.46074 0.35986 0.88180 0.18700
C 	C 	0.55276 0.63687 0.05898 -0.04700
C 	C 	0.44638 0.36325 0.94104 -0.04700
C 	C 	0.49610 0.50022 0.03000 0.03100
C 	C 	0.50303 0.49991 0.97002 0.03100
C 	C 	0.43254 0.36450 0.06090 -0.05100
C 	C 	0.56663 0.63562 0.93912 -0.05100
C 	C 	0.62269 0.76818 0.02866 -0.01500
C 	C 	0.36469 0.43563 0.76556 -0.09900
C 	C 	0.37632 0.23198 0.97137 -0.01500
C 	C 	0.62857 0.77086 0.96952 0.01100
C 	C 	0.37041 0.22933 0.03051 0.01100
C 	C 	0.70596 0.91737 0.94305 0.10600
C 	C 	0.29262 0.08300 0.05699 0.10600
C 	C 	0.20955 0.34192 0.68194 0.08800
C 	C 	0.79041 0.65788 0.31799 0.08800
C 	C 	0.80768 0.64325 0.66763 0.08600
C 	C 	0.19236 0.35640 0.33243 0.08600
C 	C 	0.63501 0.56430 0.23441 -0.09900
C 	C 	0.36195 0.42781 0.70653 0.08000
C 	C 	0.63791 0.57206 0.29344 0.08000
C 	C 	0.50788 0.49400 0.67266 -0.12500
C 	C 	0.49205 0.50586 0.32734 -0.12500
C 	C 	0.65902 0.55483 0.69913 0.07900
H 	H 	0.67205 0.87142 0.05120 0.06800
H 	H 	0.98601 0.61771 0.54242 0.08200
H 	H 	0.83545 0.96225 0.95313 0.02800
H 	H 	0.16276 0.03873 0.04709 0.02800
H 	H 	0.22059 0.29168 0.63948 0.04200
H 	H 	0.77946 0.70819 0.36044 0.04200
H 	H 	0.79003 0.70038 0.62795 0.03600
H 	H 	0.21011 0.29940 0.37213 0.03600
H 	H 	0.32686 0.12877 0.94883 0.06800
H 	H 	0.25053 0.39490 0.79207 0.09700
H 	H 	0.74909 0.60511 0.20788 0.09700
H 	H 	0.78118 0.58039 0.77845 0.09900
H 	H 	0.21854 0.41936 0.22162 0.09900
H 	H 	0.70345 0.01084 0.49303 0.09500
H 	H 	0.29655 0.98916 0.50697 0.09500
H 	H 	0.01399 0.38229 0.45758 0.08200
N 	N 	0.48276 0.50835 0.14786 -0.17500
N 	N 	0.51669 0.49165 0.85216 -0.17500
N 	N 	0.95033 0.45795 0.48456 -0.22800
N 	N 	0.04967 0.54205 0.51544 -0.22900
O 	O 	0.38925 0.73857 0.50379 -0.45800
O 	O 	0.61687 0.75553 0.84780 -0.16500
O 	O 	0.57868 0.77507 0.14622 -0.16900
O 	O 	0.42057 0.22498 0.85381 -0.16900
O 	O 	0.62157 0.99522 0.91376 -0.15300
O 	O 	0.37699 0.00466 0.08612 -0.15300
O 	O 	0.07006 0.32232 0.70960 -0.15800
O 	O 	0.92990 0.67731 0.29032 -0.15800
O 	O 	0.95140 0.65723 0.68656 -0.16000
O 	O 	0.04864 0.34215 0.31351 -0.16000
O 	O 	0.61075 0.26143 0.49621 -0.45800
O 	O 	0.67839 0.71162 0.49389 -0.46000
O 	O 	0.32161 0.28838 0.50611 -0.46000
O 	O 	0.35540 0.51352 0.58879 -0.43400
O 	O 	0.64460 0.48648 0.41121 -0.43400
O 	O 	0.64455 0.48657 0.57890 -0.43700
O 	O 	0.35545 0.51343 0.42110 -0.43700
O 	O 	0.38291 0.24438 0.15219 -0.16500
Zn	Zn	0.30693 0.51800 0.50661 1.22900
Zn	Zn	0.69307 0.48200 0.49339 1.22900
