data_crystal

_cell_length_a 28.17796
_cell_length_b 18.33717
_cell_length_c 16.93601
_cell_angle_alpha 90.48974
_cell_angle_beta  61.77801
_cell_angle_gamma 90.98517

_symmetry_space_group_name_	'P 1'
_symmetry_space_group_name_H-M	'P 1'

loop_
_symmetry_equiv_pos_as_xyz
  x,y,z

loop_
_atom_site_label
_atom_site_type_symbol
_atom_site_fract_x
_atom_site_fract_y
_atom_site_fract_z
_atom_site_charge
Br	Br	0.18040 0.33723 0.33986 -0.15800
Br	Br	0.39391 0.69065 0.77923 -0.07000
Br	Br	0.42684 0.22217 0.78953 -0.11000
Br	Br	0.58764 0.80702 0.18532 -0.09300
Br	Br	0.10460 0.80646 0.22170 -0.08000
Br	Br	0.89479 0.19344 0.77875 -0.13000
Br	Br	0.90843 0.69358 0.82076 -0.09500
Br	Br	0.11235 0.20438 0.21133 -0.08200
Br	Br	0.88868 0.71018 0.55619 -0.04700
Br	Br	0.92695 0.30487 0.31742 -0.09700
Br	Br	0.06377 0.69498 0.64248 -0.10200
Br	Br	0.60485 0.78251 0.45978 -0.06500
Br	Br	0.43455 0.20595 0.34978 -0.11200
Br	Br	0.43575 0.79949 0.36100 -0.09500
Br	Br	0.57009 0.20213 0.66385 -0.10900
Br	Br	0.60389 0.30420 0.22196 -0.11100
C 	C 	0.70085 0.26557 0.67695 0.43800
C 	C 	0.09921 0.50046 0.50167 -0.05300
C 	C 	0.20266 0.19385 0.89808 -0.10300
C 	C 	0.61764 0.32748 0.04764 -0.13700
C 	C 	0.38114 0.67059 0.95317 -0.13000
C 	C 	0.39667 0.30191 0.94786 -0.13900
C 	C 	0.60638 0.70656 0.04863 -0.13900
C 	C 	0.11796 0.82824 0.04745 -0.13100
C 	C 	0.88145 0.17125 0.95288 -0.13700
C 	C 	0.89001 0.79655 0.95447 -0.13600
C 	C 	0.12418 0.17199 0.04075 -0.14600
C 	C 	0.64646 0.31158 0.09343 0.15000
C 	C 	0.41183 0.00381 0.46352 -0.08700
C 	C 	0.35192 0.68551 0.90784 0.14500
C 	C 	0.37454 0.26795 0.89809 0.15900
C 	C 	0.63278 0.74039 0.09211 0.16000
C 	C 	0.14691 0.81272 0.09311 0.15200
C 	C 	0.85242 0.18668 0.90733 0.15000
C 	C 	0.86356 0.76213 0.91156 0.16200
C 	C 	0.15425 0.18433 0.08545 0.14800
C 	C 	0.73913 0.18899 0.79816 0.19200
C 	C 	0.26041 0.81038 0.20194 0.20100
C 	C 	0.26204 0.18127 0.20409 0.19900
C 	C 	0.58027 0.99965 0.55312 0.13500
C 	C 	0.76934 0.71313 0.77143 0.20500
C 	C 	0.23879 0.68868 0.79855 0.19800
C 	C 	0.76005 0.30988 0.20223 0.19500
C 	C 	0.72688 0.78698 0.23300 0.20400
C 	C 	0.28117 0.21906 0.75685 0.19100
C 	C 	0.76953 0.17501 0.84194 0.25600
C 	C 	0.22991 0.82418 0.15827 0.26200
C 	C 	0.23226 0.16564 0.15925 0.26500
C 	C 	0.79938 0.73737 0.81248 0.25800
C 	C 	0.26889 0.67427 0.84274 0.26100
C 	C 	0.12000 0.37832 0.44179 0.10800
C 	C 	0.72933 0.32335 0.15886 0.25800
C 	C 	0.69726 0.76293 0.19115 0.25800
C 	C 	0.30891 0.24403 0.80139 0.25900
C 	C 	0.07300 0.10242 0.93599 0.54300
C 	C 	0.93030 0.89444 0.06119 0.51000
C 	C 	0.92688 0.10174 0.06466 0.52500
C 	C 	0.07298 0.89812 0.93541 0.51700
C 	C 	0.56826 0.60670 0.94007 0.51200
C 	C 	0.42873 0.39600 0.06301 0.52300
C 	C 	0.42690 0.60178 0.06468 0.52100
C 	C 	0.91962 0.63510 0.46388 0.10100
C 	C 	0.57294 0.39806 0.93546 0.52300
C 	C 	0.53530 0.13476 0.54473 -0.10200
C 	C 	0.44521 0.87238 0.50268 -0.05900
C 	C 	0.45950 0.13637 0.47811 -0.04300
C 	C 	0.52283 0.87156 0.55958 -0.09900
C 	C 	0.05248 0.63170 0.49656 -0.06400
C 	C 	0.97742 0.37071 0.41552 -0.03900
C 	C 	0.97403 0.63374 0.44161 -0.03500
C 	C 	0.07090 0.37287 0.43902 -0.06000
C 	C 	0.51745 0.20133 0.52770 0.27300
C 	C 	0.93169 0.37297 0.40134 0.09800
C 	C 	0.45426 0.80791 0.53675 0.25200
C 	C 	0.48121 0.20208 0.49253 0.25000
C 	C 	0.49035 0.80874 0.57110 0.26900
C 	C 	0.03914 0.69820 0.47278 0.26500
C 	C 	0.00625 0.30609 0.40693 0.21600
C 	C 	0.00332 0.69842 0.43776 0.21800
C 	C 	0.05283 0.30757 0.41733 0.25800
C 	C 	0.47432 0.07032 0.50154 -0.00200
C 	C 	0.50619 0.93802 0.54261 0.13300
C 	C 	0.51433 0.06934 0.52971 0.08500
C 	C 	0.08181 0.62783 0.54361 0.10800
C 	C 	0.46614 0.93870 0.51562 0.04600
C 	C 	0.99451 0.56722 0.44852 0.04000
C 	C 	0.04090 0.43592 0.45289 0.00100
C 	C 	0.03587 0.56656 0.47218 0.00200
C 	C 	0.99554 0.43567 0.43811 0.03800
C 	C 	0.97032 0.50174 0.44135 0.01100
C 	C 	0.05801 0.50074 0.47709 0.02700
C 	C 	0.45150 0.00443 0.49197 -0.01400
C 	C 	0.53308 0.00240 0.54345 -0.16600
C 	C 	0.89864 0.43592 0.42690 0.09600
C 	C 	0.57675 0.86628 0.54078 0.14400
C 	C 	0.11197 0.56455 0.53493 0.10200
C 	C 	0.12949 0.43748 0.48806 0.10700
C 	C 	0.89253 0.56918 0.45537 0.10900
C 	C 	0.39101 0.93679 0.45132 0.13000
C 	C 	0.60323 0.06593 0.56360 -0.00200
C 	C 	0.60613 0.93150 0.54488 0.05500
C 	C 	0.39330 0.06951 0.44698 0.09200
C 	C 	0.84509 0.43577 0.43779 -0.21600
C 	C 	0.15745 0.56441 0.55035 -0.23200
C 	C 	0.16828 0.43730 0.52005 -0.25200
C 	C 	0.42385 0.13433 0.44054 0.11400
C 	C 	0.84106 0.56586 0.45564 -0.23200
C 	C 	0.34361 0.93605 0.44165 -0.13800
C 	C 	0.65496 0.06471 0.55981 -0.25400
C 	C 	0.65748 0.93405 0.54631 -0.20900
C 	C 	0.34469 0.06700 0.43898 -0.18800
C 	C 	0.82109 0.50091 0.43975 0.44500
C 	C 	0.17944 0.49956 0.55527 0.45900
C 	C 	0.32367 0.00081 0.42853 0.32000
C 	C 	0.67742 0.99916 0.56208 0.49400
C 	C 	0.41689 0.87245 0.45424 0.11100
C 	C 	0.29914 0.73444 0.32305 0.43600
C 	C 	0.57365 0.13116 0.57597 0.14300
C 	C 	0.71760 0.26135 0.95731 0.06100
C 	C 	0.28135 0.73703 0.04358 0.05800
C 	C 	0.29401 0.23825 0.03438 0.06300
C 	C 	0.71859 0.73152 0.95647 0.06500
C 	C 	0.21764 0.76152 0.95733 0.06300
C 	C 	0.78136 0.23703 0.04348 0.05700
C 	C 	0.77774 0.77203 0.04706 0.06500
C 	C 	0.23440 0.20590 0.94278 0.06300
C 	C 	0.76406 0.21792 0.91531 -0.05000
C 	C 	0.29982 0.26405 0.32300 0.45700
C 	C 	0.23511 0.78090 0.08531 -0.04500
C 	C 	0.24383 0.20183 0.07896 -0.05000
C 	C 	0.77562 0.74250 0.90701 -0.04100
C 	C 	0.26375 0.71746 0.91573 -0.04900
C 	C 	0.73482 0.28032 0.08557 -0.04900
C 	C 	0.72082 0.76003 0.09658 -0.04200
C 	C 	0.28867 0.23171 0.89391 -0.04900
C 	C 	0.79859 0.21090 0.95510 0.00100
C 	C 	0.20059 0.78800 0.04551 0.00400
C 	C 	0.21089 0.19488 0.03669 0.00100
C 	C 	0.70418 0.72499 0.67517 0.46900
C 	C 	0.80591 0.76009 0.95307 0.00400
C 	C 	0.29828 0.71031 0.95552 0.00800
C 	C 	0.70029 0.28731 0.04576 0.00000
C 	C 	0.69046 0.74286 0.05050 0.00300
C 	C 	0.31893 0.24817 0.94037 -0.00100
C 	C 	0.63969 0.31737 0.95419 0.19600
C 	C 	0.35952 0.68146 0.04640 0.19300
C 	C 	0.36858 0.30237 0.04206 0.20100
C 	C 	0.63421 0.69286 0.95658 0.20400
C 	C 	0.13984 0.81773 0.95408 0.19700
C 	C 	0.20082 0.76551 0.67697 0.43700
C 	C 	0.85959 0.18161 0.04625 0.19300
C 	C 	0.86227 0.81110 0.04630 0.20500
C 	C 	0.14821 0.17175 0.94687 0.21000
C 	C 	0.61394 0.34108 0.90337 -0.29500
C 	C 	0.38572 0.65854 0.09683 -0.29100
C 	C 	0.38974 0.33538 0.09535 -0.30300
C 	C 	0.60842 0.66565 0.90710 -0.29800
C 	C 	0.11398 0.84117 0.90334 -0.28800
C 	C 	0.88558 0.15829 0.09687 -0.29700
C 	C 	0.88863 0.83755 0.09517 -0.29600
C 	C 	0.79902 0.23420 0.32309 0.43800
C 	C 	0.11866 0.15344 0.90021 -0.32300
C 	C 	0.63157 0.31637 0.81662 0.45800
C 	C 	0.36844 0.68388 0.18324 0.45700
C 	C 	0.36996 0.31495 0.18408 0.46500
C 	C 	0.62931 0.68373 0.81760 0.47200
C 	C 	0.13145 0.81616 0.81673 0.45700
C 	C 	0.86793 0.18293 0.18361 0.45800
C 	C 	0.86796 0.81978 0.18438 0.47400
C 	C 	0.13788 0.17404 0.81263 0.47800
C 	C 	0.67658 0.27279 0.77533 -0.20800
C 	C 	0.79481 0.77655 0.32582 0.47000
C 	C 	0.32325 0.72709 0.22469 -0.20300
C 	C 	0.32535 0.26889 0.22488 -0.21800
C 	C 	0.68247 0.70663 0.77059 -0.22000
C 	C 	0.17654 0.77272 0.77539 -0.20300
C 	C 	0.82300 0.22661 0.22484 -0.20900
C 	C 	0.81491 0.79674 0.23175 -0.22400
C 	C 	0.19057 0.19812 0.76373 -0.24000
C 	C 	0.70217 0.24698 0.82583 0.08700
C 	C 	0.29732 0.75234 0.17445 0.08800
C 	C 	0.30161 0.23779 0.17337 0.09800
C 	C 	0.20707 0.22106 0.67226 0.46700
C 	C 	0.71384 0.71201 0.81643 0.09600
C 	C 	0.20212 0.74698 0.82593 0.08800
C 	C 	0.79716 0.25206 0.17453 0.08700
C 	C 	0.78268 0.79166 0.18713 0.09700
C 	C 	0.22538 0.20270 0.80441 0.09800
C 	C 	0.69084 0.12935 0.53623 0.44100
C 	C 	0.30871 0.87090 0.46452 0.41900
C 	C 	0.30919 0.12993 0.46241 0.43500
C 	C 	0.69219 0.87126 0.53020 0.46200
C 	C 	0.19113 0.62943 0.53533 0.44800
C 	C 	0.92088 0.50254 0.43920 -0.04000
C 	C 	0.80937 0.37056 0.46277 0.43700
C 	C 	0.80718 0.62865 0.47123 0.47300
C 	C 	0.19576 0.37223 0.52055 0.48200
C 	C 	0.68688 0.27606 0.91193 -0.09300
C 	C 	0.31231 0.72274 0.08869 -0.08800
C 	C 	0.32103 0.26023 0.08374 -0.09700
C 	C 	0.68876 0.71330 0.91006 -0.09400
C 	C 	0.18695 0.77626 0.91192 -0.09000
C 	C 	0.81229 0.22269 0.08863 -0.09300
C 	C 	0.80756 0.79099 0.09333 -0.09300
F 	F 	0.07821 0.24404 0.41214 -0.36600
F 	F 	0.21512 0.49860 0.58831 -0.41400
F 	F 	0.28064 0.99963 0.41256 -0.33700
F 	F 	0.72141 0.99937 0.57554 -0.40100
F 	F 	0.60509 0.33660 0.77096 -0.42700
F 	F 	0.39552 0.66480 0.22836 -0.42800
F 	F 	0.39379 0.34186 0.23208 -0.43000
F 	F 	0.59884 0.67392 0.77540 -0.43000
F 	F 	0.10467 0.83577 0.77132 -0.42500
F 	F 	0.89430 0.16242 0.22934 -0.42900
F 	F 	0.89906 0.82856 0.22565 -0.42500
F 	F 	0.99089 0.76299 0.41377 -0.33400
F 	F 	0.10472 0.16939 0.77471 -0.44400
F 	F 	0.74046 0.13855 0.73800 -0.36800
F 	F 	0.25926 0.86109 0.26170 -0.33700
F 	F 	0.25658 0.13436 0.26955 -0.35600
F 	F 	0.79334 0.67658 0.69369 -0.37900
F 	F 	0.24003 0.63836 0.73835 -0.35300
F 	F 	0.75885 0.36071 0.26190 -0.35700
F 	F 	0.70085 0.81574 0.31558 -0.37500
F 	F 	0.31117 0.20723 0.66757 -0.38200
F 	F 	0.79862 0.11290 0.82005 -0.37800
F 	F 	0.98842 0.24052 0.39299 -0.34700
F 	F 	0.20104 0.88647 0.17975 -0.33700
F 	F 	0.19746 0.10779 0.18765 -0.35900
F 	F 	0.84911 0.76464 0.75772 -0.36200
F 	F 	0.29729 0.61158 0.82169 -0.36200
F 	F 	0.69995 0.38520 0.18098 -0.36500
F 	F 	0.64797 0.73382 0.24512 -0.36600
F 	F 	0.35284 0.28673 0.75336 -0.36100
F 	F 	0.06126 0.76211 0.48156 -0.36400
F 	F 	0.49924 0.74585 0.60355 -0.35700
F 	F 	0.46545 0.26771 0.47745 -0.34700
F 	F 	0.42843 0.74467 0.53684 -0.36600
F 	F 	0.53781 0.26600 0.53856 -0.36100
F 	F 	0.77602 0.50048 0.42933 -0.41600
H 	H 	0.57590 0.34130 0.08838 0.11900
H 	H 	0.42286 0.65698 0.91200 0.12200
H 	H 	0.43875 0.31805 0.91309 0.12100
H 	H 	0.56282 0.70181 0.08330 0.12200
H 	H 	0.07625 0.84206 0.08835 0.12100
H 	H 	0.92321 0.15766 0.91191 0.11900
H 	H 	0.93360 0.80062 0.91981 0.12600
H 	H 	0.08088 0.16793 0.08084 0.12000
O 	O 	0.74649 0.23633 0.63808 -0.40900
O 	O 	0.32583 0.81384 0.48373 -0.40700
O 	O 	0.32583 0.18616 0.48373 -0.39400
O 	O 	0.67417 0.81384 0.51627 -0.40500
O 	O 	0.17417 0.68616 0.51627 -0.41900
O 	O 	0.82583 0.31384 0.48373 -0.41900
O 	O 	0.82583 0.68616 0.48373 -0.41200
O 	O 	0.17417 0.31384 0.51627 -0.42600
O 	O 	0.73996 0.12762 0.52500 -0.40800
O 	O 	0.26004 0.87238 0.47500 -0.37700
O 	O 	0.26004 0.12762 0.47500 -0.39800
O 	O 	0.25351 0.76367 0.36192 -0.40000
O 	O 	0.73996 0.87238 0.52500 -0.39100
O 	O 	0.23996 0.62762 0.52500 -0.39700
O 	O 	0.76004 0.37238 0.47500 -0.38800
O 	O 	0.76004 0.62762 0.47500 -0.40100
O 	O 	0.23996 0.37238 0.52500 -0.40900
O 	O 	0.68070 0.29487 0.62935 -0.37700
O 	O 	0.31930 0.70513 0.37065 -0.37900
O 	O 	0.31930 0.29487 0.37065 -0.38900
O 	O 	0.68070 0.70513 0.62935 -0.39700
O 	O 	0.18070 0.79487 0.62935 -0.37400
O 	O 	0.25351 0.23633 0.36192 -0.40300
O 	O 	0.81930 0.20513 0.37065 -0.38300
O 	O 	0.81930 0.79487 0.37065 -0.39300
O 	O 	0.18070 0.20513 0.62935 -0.40100
O 	O 	0.06202 0.07284 0.00717 -0.51700
O 	O 	0.93798 0.92716 0.99283 -0.45500
O 	O 	0.93798 0.07284 0.99283 -0.49700
O 	O 	0.06202 0.92716 0.00717 -0.46500
O 	O 	0.56202 0.57284 0.00717 -0.48100
O 	O 	0.43798 0.42716 0.99283 -0.48700
O 	O 	0.43798 0.57284 0.99283 -0.48500
O 	O 	0.74649 0.76367 0.63808 -0.41100
O 	O 	0.56202 0.42716 0.00717 -0.48600
O 	O 	0.94786 0.07395 0.10929 -0.43700
O 	O 	0.05214 0.92605 0.89071 -0.41300
O 	O 	0.05214 0.07395 0.89071 -0.46800
O 	O 	0.94786 0.92605 0.10929 -0.40700
O 	O 	0.44786 0.57395 0.10929 -0.43000
O 	O 	0.55214 0.42605 0.89071 -0.42900
O 	O 	0.55214 0.57395 0.89071 -0.43600
O 	O 	0.44786 0.42605 0.10929 -0.44000
O 	O 	0.24649 0.73633 0.63808 -0.39900
O 	O 	0.75351 0.26367 0.36192 -0.40700
O 	O 	0.75351 0.73633 0.36192 -0.41300
O 	O 	0.24649 0.26367 0.63808 -0.40600
O 	O 	0.67417 0.18616 0.51627 -0.42000
Zn	Zn	0.79234 0.20875 0.50767 1.21500
Zn	Zn	0.49404 0.50000 0.91948 1.22500
Zn	Zn	0.00596 -0.00000 0.08052 1.20300
Zn	Zn	0.99404 0.00000 0.91948 1.21200
Zn	Zn	0.20766 0.79125 0.49233 1.22100
Zn	Zn	0.20766 0.20875 0.49233 1.21400
Zn	Zn	0.79234 0.79125 0.50767 1.21600
Zn	Zn	0.29234 0.70875 0.50767 1.21900
Zn	Zn	0.70766 0.29125 0.49233 1.21800
Zn	Zn	0.70766 0.70875 0.49233 1.21500
Zn	Zn	0.29234 0.29125 0.50767 1.21800
Zn	Zn	0.50596 0.50000 0.08052 1.22500
