data_crystal

_cell_length_a 12.65332
_cell_length_b 12.65332
_cell_length_c 27.06297
_cell_angle_alpha 90.00000
_cell_angle_beta  90.00000
_cell_angle_gamma 120.00022

_symmetry_space_group_name_	'P 1'
_symmetry_space_group_name_H-M	'P 1'

loop_
_symmetry_equiv_pos_as_xyz
  x,y,z

loop_
_atom_site_label
_atom_site_type_symbol
_atom_site_fract_x
_atom_site_fract_y
_atom_site_fract_z
_atom_site_charge
C 	C 	0.55863 0.45594 0.82241 0.40500
C 	C 	0.45594 0.55863 0.17759 0.40500
C 	C 	0.00511 0.31173 0.47442 -0.03900
C 	C 	0.30662 0.99489 0.02558 -0.03900
C 	C 	0.68827 0.69338 0.47442 -0.03900
C 	C 	0.31172 0.00509 0.52558 -0.03900
C 	C 	0.99490 0.30663 0.97442 -0.03900
C 	C 	0.69337 0.68828 0.52558 -0.03900
C 	C 	0.31173 0.00510 0.97442 -0.03900
C 	C 	0.99491 0.30663 0.52558 -0.03900
C 	C 	0.69337 0.68827 0.97442 -0.03900
C 	C 	0.44137 0.89731 0.32241 0.40500
C 	C 	0.10269 0.54406 0.17759 0.40500
C 	C 	0.99296 0.49841 0.97422 -0.00200
C 	C 	0.50545 0.00704 0.52578 -0.00200
C 	C 	0.50159 0.49455 0.97422 -0.00200
C 	C 	0.99296 0.49841 0.52578 -0.00200
C 	C 	0.50545 0.00704 0.97422 -0.00200
C 	C 	0.50159 0.49456 0.52578 -0.00100
C 	C 	0.49841 0.99296 0.47422 -0.00100
C 	C 	0.89731 0.44137 0.67759 0.40600
C 	C 	0.00704 0.50545 0.02578 -0.00100
C 	C 	0.49455 0.50159 0.47422 -0.00100
C 	C 	0.49841 0.99296 0.02578 -0.00100
C 	C 	0.00704 0.50545 0.47422 -0.00100
C 	C 	0.49455 0.50159 0.02578 -0.00100
C 	C 	0.99068 0.68950 0.97439 -0.03900
C 	C 	0.69883 0.00933 0.52561 -0.03900
C 	C 	0.31050 0.30118 0.97439 -0.03900
C 	C 	0.99067 0.68950 0.52560 -0.03900
C 	C 	0.69883 0.00932 0.97439 -0.03900
C 	C 	0.54406 0.10269 0.82241 0.40600
C 	C 	0.31050 0.30117 0.52560 -0.03900
C 	C 	0.68951 0.99068 0.47439 -0.03900
C 	C 	0.00932 0.69882 0.02561 -0.03900
C 	C 	0.30118 0.31049 0.47439 -0.03900
C 	C 	0.68950 0.99068 0.02561 -0.03900
C 	C 	0.00932 0.69882 0.47439 -0.03900
C 	C 	0.30118 0.31050 0.02561 -0.03900
C 	C 	0.95975 0.57662 0.89730 -0.00200
C 	C 	0.61687 0.04025 0.60270 -0.00200
C 	C 	0.42338 0.38313 0.89730 -0.00200
C 	C 	0.55863 0.45594 0.67759 0.40600
C 	C 	0.95975 0.57662 0.60270 -0.00200
C 	C 	0.61687 0.04025 0.89730 -0.00200
C 	C 	0.42338 0.38313 0.60270 -0.00200
C 	C 	0.57662 0.95975 0.39730 -0.00200
C 	C 	0.04025 0.61687 0.10270 -0.00200
C 	C 	0.38313 0.42338 0.39730 -0.00200
C 	C 	0.57662 0.95975 0.10270 -0.00200
C 	C 	0.04025 0.61687 0.39730 -0.00200
C 	C 	0.38313 0.42338 0.10270 -0.00200
C 	C 	0.04948 0.52438 0.12780 -0.10800
C 	C 	0.89731 0.44137 0.82241 0.40600
C 	C 	0.47490 0.95052 0.37220 -0.10800
C 	C 	0.47562 0.52510 0.12780 -0.10800
C 	C 	0.04948 0.52438 0.37220 -0.10800
C 	C 	0.47490 0.95052 0.12780 -0.10800
C 	C 	0.47562 0.52510 0.37220 -0.10800
C 	C 	0.52438 0.04947 0.62780 -0.10800
C 	C 	0.95052 0.47490 0.87220 -0.10800
C 	C 	0.52510 0.47562 0.62780 -0.10800
C 	C 	0.52438 0.04948 0.87220 -0.10800
C 	C 	0.95052 0.47490 0.62780 -0.10800
C 	C 	0.54406 0.10269 0.67759 0.40600
C 	C 	0.52510 0.47562 0.87220 -0.10800
C 	C 	0.98254 0.58968 0.94835 0.00600
C 	C 	0.60714 0.01746 0.55165 0.00600
C 	C 	0.41032 0.39286 0.94835 0.00600
C 	C 	0.98254 0.58968 0.55165 0.00600
C 	C 	0.60714 0.01746 0.94835 0.00600
C 	C 	0.41032 0.39286 0.55165 0.00600
C 	C 	0.58968 0.98254 0.44835 0.00600
C 	C 	0.01746 0.60714 0.05165 0.00600
C 	C 	0.39286 0.41032 0.44835 0.00600
C 	C 	0.45594 0.55863 0.32241 0.40600
C 	C 	0.58968 0.98254 0.05165 0.00600
C 	C 	0.01746 0.60714 0.44835 0.00600
C 	C 	0.39286 0.41032 0.05165 0.00600
C 	C 	0.97121 0.39041 0.89787 -0.00100
C 	C 	0.41920 0.02879 0.60213 -0.00100
C 	C 	0.60959 0.58080 0.89787 -0.00100
C 	C 	0.97122 0.39041 0.60213 -0.00100
C 	C 	0.41920 0.02879 0.89787 -0.00100
C 	C 	0.60959 0.58080 0.60213 -0.00100
C 	C 	0.39041 0.97120 0.39787 -0.00100
C 	C 	0.44137 0.89731 0.17759 0.40600
C 	C 	0.02879 0.41920 0.10213 -0.00100
C 	C 	0.58080 0.60959 0.39787 -0.00100
C 	C 	0.39041 0.97121 0.10213 -0.00100
C 	C 	0.02880 0.41920 0.39787 -0.00100
C 	C 	0.58080 0.60959 0.10213 -0.00100
C 	C 	0.98808 0.39902 0.94865 0.00700
C 	C 	0.41094 0.01191 0.55135 0.00700
C 	C 	0.60098 0.58906 0.94865 0.00700
C 	C 	0.98809 0.39903 0.55135 0.00700
C 	C 	0.41094 0.01192 0.94865 0.00700
C 	C 	0.10269 0.54406 0.32241 0.40600
C 	C 	0.60097 0.58906 0.55135 0.00700
C 	C 	0.39902 0.98808 0.44865 0.00700
C 	C 	0.01192 0.41094 0.05135 0.00700
C 	C 	0.58905 0.60098 0.44865 0.00700
C 	C 	0.39902 0.98808 0.05135 0.00700
C 	C 	0.01193 0.41095 0.44865 0.00700
C 	C 	0.58906 0.60098 0.05135 0.00700
C 	C 	0.00510 0.31173 0.02558 -0.03800
C 	C 	0.30662 0.99489 0.47442 -0.03800
C 	C 	0.68827 0.69337 0.02558 -0.03800
Cr	Cr	0.48763 0.24118 0.75000 1.54500
Cr	Cr	0.75355 0.51237 0.75000 1.54500
Cr	Cr	0.75882 0.24645 0.75000 1.54500
Cr	Cr	0.24118 0.48763 0.25000 1.54500
Cr	Cr	0.51237 0.75355 0.25000 1.54500
Cr	Cr	0.24645 0.75882 0.25000 1.54500
H 	H 	0.01693 0.77743 0.04484 0.03300
H 	H 	0.77743 0.01693 0.95516 0.03300
H 	H 	0.98306 0.76049 0.54484 0.03300
H 	H 	0.23950 0.22257 0.95516 0.03300
H 	H 	0.03503 0.34686 0.12096 0.03900
H 	H 	0.31182 0.96496 0.37904 0.03900
H 	H 	0.65314 0.68818 0.12096 0.03900
H 	H 	0.03504 0.34686 0.37905 0.03900
H 	H 	0.31182 0.96497 0.12096 0.03900
H 	H 	0.65314 0.68818 0.37905 0.03900
H 	H 	0.34685 0.03503 0.62096 0.03900
H 	H 	0.76050 0.98308 0.45515 0.03300
H 	H 	0.96497 0.31183 0.87904 0.03900
H 	H 	0.68817 0.65315 0.62096 0.03900
H 	H 	0.34686 0.03503 0.87904 0.03900
H 	H 	0.96498 0.31183 0.62096 0.03900
H 	H 	0.68817 0.65314 0.87904 0.03900
H 	H 	0.00951 0.23904 0.04493 0.03300
H 	H 	0.22952 0.99048 0.45507 0.03300
H 	H 	0.76096 0.77048 0.04493 0.03300
H 	H 	0.00953 0.23904 0.45507 0.03300
H 	H 	0.22952 0.99049 0.04493 0.03300
H 	H 	0.22257 0.23950 0.04484 0.03300
H 	H 	0.76096 0.77048 0.45507 0.03300
H 	H 	0.23903 0.00950 0.54493 0.03300
H 	H 	0.99049 0.22953 0.95507 0.03300
H 	H 	0.77047 0.76097 0.54493 0.03300
H 	H 	0.23903 0.00951 0.95507 0.03300
H 	H 	0.99050 0.22953 0.54493 0.03300
H 	H 	0.77048 0.76097 0.95507 0.03300
H 	H 	0.05611 0.69827 0.12228 0.03300
H 	H 	0.64216 0.94389 0.37772 0.03300
H 	H 	0.30173 0.35784 0.12228 0.03300
H 	H 	0.01692 0.77742 0.45515 0.03300
H 	H 	0.05611 0.69826 0.37772 0.03300
H 	H 	0.64216 0.94389 0.12228 0.03300
H 	H 	0.30174 0.35784 0.37772 0.03300
H 	H 	0.69827 0.05612 0.62228 0.03300
H 	H 	0.94389 0.64216 0.87772 0.03300
H 	H 	0.35785 0.30173 0.62228 0.03300
H 	H 	0.69827 0.05611 0.87772 0.03300
H 	H 	0.94388 0.64215 0.62228 0.03300
H 	H 	0.35784 0.30173 0.87772 0.03300
H 	H 	0.76050 0.98307 0.04484 0.03300
H 	H 	0.22258 0.23950 0.45515 0.03300
H 	H 	0.77743 0.01694 0.54484 0.03300
H 	H 	0.98307 0.76049 0.95516 0.03300
H 	H 	0.23951 0.22257 0.54484 0.03300
O 	O 	0.46087 0.12093 0.80524 -0.48700
O 	O 	0.12093 0.46087 0.19476 -0.48700
O 	O 	0.53913 0.66006 0.30524 -0.48700
O 	O 	0.33994 0.87907 0.19476 -0.48700
O 	O 	0.49891 0.35047 0.80187 -0.52800
O 	O 	0.85156 0.50109 0.69813 -0.52800
O 	O 	0.64953 0.14844 0.80187 -0.52800
O 	O 	0.49891 0.35047 0.69813 -0.52800
O 	O 	0.85156 0.50109 0.80187 -0.52800
O 	O 	0.64953 0.14844 0.69813 -0.52800
O 	O 	0.35047 0.49891 0.30187 -0.52800
O 	O 	0.66006 0.53913 0.69476 -0.48700
O 	O 	0.50109 0.85156 0.19813 -0.52800
O 	O 	0.14844 0.64953 0.30187 -0.52800
O 	O 	0.35047 0.49891 0.19813 -0.52800
O 	O 	0.50109 0.85156 0.30187 -0.52800
O 	O 	0.14844 0.64953 0.19813 -0.52800
O 	O 	0.66667 0.33333 0.75000 -0.74400
O 	O 	0.33333 0.66667 0.25000 -0.74400
O 	O 	0.87907 0.33994 0.80524 -0.48700
O 	O 	0.46087 0.12093 0.69476 -0.48700
O 	O 	0.66006 0.53913 0.80524 -0.48700
O 	O 	0.87907 0.33994 0.69476 -0.48700
O 	O 	0.12093 0.46087 0.30524 -0.48700
O 	O 	0.53913 0.66006 0.19476 -0.48700
O 	O 	0.33994 0.87907 0.30524 -0.48700
