data_crystal

_cell_length_a 7.76196
_cell_length_b 8.42344
_cell_length_c 14.86557
_cell_angle_alpha 90.78893
_cell_angle_beta  85.92804
_cell_angle_gamma 93.72238

_symmetry_space_group_name_	'P 1'
_symmetry_space_group_name_H-M	'P 1'

loop_
_symmetry_equiv_pos_as_xyz
  x,y,z

loop_
_atom_site_label
_atom_site_type_symbol
_atom_site_fract_x
_atom_site_fract_y
_atom_site_fract_z
_atom_site_charge
C 	C 	0.54399 0.79325 0.48363 0.38000
C 	C 	0.45340 0.20595 0.48896 0.35800
C 	C 	0.63330 0.77537 0.95272 -0.01500
C 	C 	0.36658 0.22440 0.04759 -0.01900
C 	C 	0.56299 0.95289 0.44891 -0.12700
C 	C 	0.42504 0.04356 0.45928 -0.02900
C 	C 	0.50241 0.49991 0.67277 0.36700
C 	C 	0.49756 0.49994 0.32726 0.36500
C 	C 	0.43112 0.36423 0.18873 0.00200
C 	C 	0.56935 0.63540 0.81149 -0.00000
C 	C 	0.49192 0.50113 0.23239 -0.08500
C 	C 	0.50803 0.49870 0.76777 -0.08500
C 	C 	0.55128 0.63792 0.18638 -0.00500
C 	C 	0.44805 0.36212 0.81387 -0.00300
C 	C 	0.55449 0.63827 0.09337 0.02100
C 	C 	0.44498 0.36168 0.90690 0.02100
C 	C 	0.49528 0.49988 0.04710 -0.00200
C 	C 	0.50443 0.49997 0.95315 -0.00200
C 	C 	0.42807 0.36157 0.09508 0.02100
C 	C 	0.57195 0.63816 0.90518 0.01700
C 	C 	0.62005 0.77408 0.04662 -0.04700
C 	C 	0.37940 0.22585 0.95367 -0.04300
H 	H 	0.39291 0.26036 0.22902 0.06300
H 	H 	0.60821 0.73913 0.77123 0.06000
H 	H 	0.59760 0.74254 0.22325 0.04500
H 	H 	0.40130 0.25764 0.77705 0.05300
H 	H 	0.66585 0.87857 0.08371 0.04900
H 	H 	0.33341 0.12142 0.91660 0.05400
H 	H 	0.01345 0.38166 0.43194 0.09700
H 	H 	0.98655 0.61843 0.56800 0.08700
N 	N 	0.95033 0.45795 0.47566 -0.22500
N 	N 	0.04967 0.54205 0.52434 -0.22300
O 	O 	0.38925 0.73857 0.50597 -0.45900
O 	O 	0.61075 0.26143 0.49403 -0.43300
O 	O 	0.67839 0.71162 0.49037 -0.45700
O 	O 	0.32161 0.28838 0.50963 -0.43300
O 	O 	0.35542 0.51351 0.63995 -0.42900
O 	O 	0.64458 0.48649 0.36005 -0.43100
O 	O 	0.64456 0.48656 0.62435 -0.42900
O 	O 	0.35544 0.51344 0.37565 -0.43900
Zn	Zn	0.30694 0.51799 0.51042 1.23300
Zn	Zn	0.69306 0.48201 0.48958 1.23400
C 	C 	0.71530 0.92193 0.90931 0.09100
H 	H 	0.70222 0.03604 0.94314 0.03100
O 	O 	0.80721 0.91674 0.83937 -0.18100
C 	C 	0.28486 0.07773 0.09105 0.12100
H 	H 	0.29743 0.96373 0.05705 0.00900
O 	O 	0.19379 0.08271 0.16129 -0.18000
C 	C 	0.73084 0.00665 0.40025 0.19300
H 	H 	0.84464 0.94113 0.40709 0.01500
O 	O 	0.74057 0.11718 0.34739 -0.19300
C 	C 	0.24505 0.98023 0.44339 0.11600
H 	H 	0.22497 0.88043 0.39745 0.02800
O 	O 	0.11885 0.03725 0.48174 -0.15700
