data_crystal

_cell_length_a 21.63756
_cell_length_b 7.18250
_cell_length_c 14.90763
_cell_angle_alpha 90.45199
_cell_angle_beta  106.41926
_cell_angle_gamma 90.13062

_symmetry_space_group_name_	'P 1'
_symmetry_space_group_name_H-M	'P 1'

loop_
_symmetry_equiv_pos_as_xyz
  x,y,z

loop_
_atom_site_label
_atom_site_type_symbol
_atom_site_fract_x
_atom_site_fract_y
_atom_site_fract_z
_atom_site_charge
O 	O 	0.33586 0.63819 0.00211 -0.47400
O 	O 	0.66414 0.36181 0.99789 -0.47400
O 	O 	0.16414 0.13819 0.99789 -0.47500
O 	O 	0.83586 0.86181 0.00211 -0.47500
O 	O 	0.21753 0.30592 0.86196 -0.46600
O 	O 	0.78247 0.69408 0.13804 -0.46700
O 	O 	0.28247 0.80592 0.13804 -0.46700
O 	O 	0.71753 0.19408 0.86196 -0.46700
C 	C 	0.20574 0.47581 0.82585 0.32800
C 	C 	0.79427 0.52419 0.17415 0.32800
C 	C 	0.29418 0.97767 0.17402 0.32500
C 	C 	0.70582 0.02234 0.82598 0.32500
O 	O 	0.33869 0.30832 0.99324 -0.48100
O 	O 	0.66131 0.69168 0.00676 -0.48100
O 	O 	0.16131 0.80832 0.00676 -0.47900
O 	O 	0.83869 0.19168 0.99324 -0.47900
O 	O 	0.28617 0.14043 0.13010 -0.45600
O 	O 	0.71383 0.85957 0.86990 -0.45600
O 	O 	0.21383 0.64043 0.86990 -0.45900
O 	O 	0.78617 0.35957 0.13010 -0.45900
C 	C 	0.36498 0.47735 0.99782 0.33900
C 	C 	0.63502 0.52265 0.00218 0.33900
C 	C 	0.13502 0.97711 0.00219 0.33500
C 	C 	0.86498 0.02289 0.99781 0.33500
O 	O 	0.23263 0.47241 0.04475 -0.61700
O 	O 	0.76737 0.52759 0.95525 -0.61700
O 	O 	0.26737 0.97241 0.95525 -0.61300
O 	O 	0.73263 0.02759 0.04475 -0.61300
V 	V 	0.25322 0.19662 0.99170 1.79400
V 	V 	0.74678 0.80338 0.00830 1.79400
V 	V 	0.24678 0.69662 0.00830 1.79400
V 	V 	0.75322 0.30338 0.99170 1.79400
C 	C 	0.02974 0.82636 0.00358 -0.00800
C 	C 	0.97026 0.17364 0.99642 -0.00800
C 	C 	0.46968 0.32649 0.99490 -0.00800
C 	C 	0.53033 0.67351 0.00510 -0.00800
H 	H 	0.05142 0.69003 0.00615 0.04600
H 	H 	0.94859 0.30997 0.99385 0.04600
H 	H 	0.44752 0.19020 0.99107 0.04500
H 	H 	0.55248 0.80980 0.00893 0.04500
C 	C 	0.96479 0.83787 0.00198 -0.00800
C 	C 	0.03521 0.16213 0.99802 -0.00800
C 	C 	0.53463 0.33772 0.99646 -0.00700
C 	C 	0.46537 0.66228 0.00354 -0.00700
C 	C 	0.93402 0.01171 0.99835 -0.07100
C 	C 	0.06598 0.98829 0.00165 -0.07100
C 	C 	0.56598 0.51141 0.00162 -0.06900
C 	C 	0.43402 0.48858 0.99838 -0.06900
C 	C 	0.67777 0.01019 0.72487 -0.08300
C 	C 	0.32223 0.98981 0.27513 -0.08300
C 	C 	0.82213 0.52117 0.27555 -0.08200
C 	C 	0.17788 0.47882 0.72445 -0.08200
C 	C 	0.68897 0.95026 0.57092 -0.07100
C 	C 	0.31103 0.04975 0.42908 -0.07100
C 	C 	0.81265 0.58483 0.43020 -0.07000
C 	C 	0.18735 0.41507 0.56981 -0.07000
C 	C 	0.71665 0.97191 0.66674 0.02600
C 	C 	0.28335 0.02809 0.33326 0.02600
C 	C 	0.78453 0.56939 0.33423 0.02400
C 	C 	0.21547 0.43053 0.66578 0.02400
C 	C 	0.61109 0.02652 0.68748 0.00600
C 	C 	0.38891 0.97349 0.31252 0.00600
C 	C 	0.88812 0.48906 0.31278 0.00600
C 	C 	0.11189 0.51098 0.68722 0.00600
C 	C 	0.58142 0.00281 0.59043 -0.01900
C 	C 	0.41858 0.99718 0.40957 -0.01900
C 	C 	0.91847 0.50904 0.40994 -0.01900
C 	C 	0.08153 0.49095 0.59006 -0.01900
C 	C 	0.62196 0.96432 0.53248 0.04300
C 	C 	0.37804 0.03568 0.46752 0.04300
C 	C 	0.87910 0.55710 0.46831 0.04200
C 	C 	0.12090 0.44283 0.53169 0.04100
C 	C 	0.51319 0.01393 0.54934 0.00800
C 	C 	0.48680 0.98606 0.45067 0.00800
C 	C 	0.98639 0.48683 0.45066 0.00800
C 	C 	0.01361 0.51314 0.54934 0.00800
C 	C 	0.52950 0.94847 0.39643 -0.03000
C 	C 	0.47050 0.05152 0.60357 -0.03000
C 	C 	0.97198 0.55971 0.60399 -0.03000
C 	C 	0.02802 0.44023 0.39601 -0.03000
C 	C 	0.59552 0.93829 0.43668 -0.05400
C 	C 	0.40448 0.06171 0.56332 -0.05400
C 	C 	0.90626 0.58055 0.56413 -0.05400
C 	C 	0.09373 0.41936 0.43587 -0.05400
H 	H 	0.62625 0.90865 0.39215 0.04600
H 	H 	0.37375 0.09135 0.60784 0.04600
H 	H 	0.87639 0.61732 0.60896 0.04600
H 	H 	0.12361 0.38256 0.39105 0.04600
H 	H 	0.41589 0.94565 0.26332 0.03600
H 	H 	0.58411 0.05435 0.73668 0.03600
H 	H 	0.08568 0.54466 0.73673 0.03700
H 	H 	0.91433 0.45545 0.26326 0.03700
H 	H 	0.23171 0.04243 0.30433 0.03200
H 	H 	0.76829 0.95758 0.69567 0.03200
H 	H 	0.26643 0.40288 0.69448 0.03200
H 	H 	0.73356 0.59700 0.30552 0.03200
H 	H 	0.71994 0.92037 0.52682 0.04800
H 	H 	0.28006 0.07964 0.47318 0.04800
H 	H 	0.78260 0.62250 0.47460 0.04800
H 	H 	0.21740 0.37735 0.52541 0.04800
H 	H 	0.51371 0.92544 0.32203 0.04000
H 	H 	0.48629 0.07456 0.67797 0.04000
H 	H 	0.98845 0.58219 0.67839 0.04100
H 	H 	0.01155 0.41772 0.32161 0.04100
H 	H 	0.93878 0.70958 0.00366 0.04900
H 	H 	0.06122 0.29042 0.99634 0.04900
H 	H 	0.56018 0.20940 0.99350 0.04700
H 	H 	0.43982 0.79060 0.00650 0.04700
