data_crystal

_cell_length_a 28.21960
_cell_length_b 7.18435
_cell_length_c 17.24302
_cell_angle_alpha 89.99850
_cell_angle_beta  102.02839
_cell_angle_gamma 89.99991

_symmetry_space_group_name_	'P 1'
_symmetry_space_group_name_H-M	'P 1'

loop_
_symmetry_equiv_pos_as_xyz
  x,y,z

loop_
_atom_site_label
_atom_site_type_symbol
_atom_site_fract_x
_atom_site_fract_y
_atom_site_fract_z
_atom_site_charge
O 	O 	0.00070 0.43651 0.85792 -0.44700
O 	O 	0.99930 0.56349 0.14208 -0.45300
O 	O 	0.99930 0.93651 0.64208 -0.45500
O 	O 	0.00070 0.06349 0.35792 -0.44700
O 	O 	0.93008 0.76638 0.72189 -0.48500
O 	O 	0.06992 0.23362 0.27811 -0.48400
O 	O 	0.06992 0.26638 0.77811 -0.48400
O 	O 	0.93008 0.73362 0.22189 -0.48300
C 	C 	0.91058 0.59763 0.70844 0.35500
C 	C 	0.08944 0.40243 0.29113 0.35200
C 	C 	0.08941 0.09763 0.79156 0.36200
C 	C 	0.91056 0.90243 0.20886 0.34400
O 	O 	0.99618 0.76623 0.86231 -0.46400
O 	O 	0.00382 0.23377 0.13769 -0.46400
O 	O 	0.00382 0.26623 0.63769 -0.46300
O 	O 	0.99618 0.73377 0.36231 -0.46500
O 	O 	0.06587 0.93646 0.78350 -0.48500
O 	O 	0.93413 0.06354 0.21650 -0.47100
O 	O 	0.93413 0.43646 0.71650 -0.47700
O 	O 	0.06587 0.56354 0.28350 -0.48200
C 	C 	0.99767 0.59594 0.89420 0.32100
C 	C 	0.00198 0.40407 0.10580 0.32000
C 	C 	0.00233 0.09595 0.60580 0.32800
C 	C 	0.99802 0.90406 0.39420 0.31500
O 	O 	0.02279 0.60302 0.72398 -0.60700
O 	O 	0.97721 0.39698 0.27602 -0.61300
O 	O 	0.97721 0.10302 0.77602 -0.60000
O 	O 	0.02279 0.89698 0.22398 -0.61900
V 	V 	0.99577 0.87790 0.75483 1.79700
V 	V 	0.00423 0.12210 0.24517 1.79900
V 	V 	0.00423 0.37790 0.74517 1.79900
V 	V 	0.99577 0.62210 0.25483 1.79800
C 	C 	0.00802 0.07779 0.52203 0.03100
C 	C 	0.99195 0.92253 0.47759 0.01600
C 	C 	0.99198 0.57779 0.97797 0.02200
C 	C 	0.00805 0.42254 0.02241 0.02500
C 	C 	0.68377 0.98204 0.02679 0.17100
C 	C 	0.31598 0.01849 0.97638 0.17200
C 	C 	0.31623 0.48201 0.47320 0.17600
C 	C 	0.68402 0.51842 0.52362 0.17600
O 	O 	0.71336 0.00051 0.97505 -0.17300
O 	O 	0.28636 0.00010 0.02807 -0.18200
O 	O 	0.28663 0.50045 0.52494 -0.18300
O 	O 	0.71364 0.49994 0.47194 -0.18600
N 	N 	0.70311 0.94640 0.10499 -0.17300
N 	N 	0.29668 0.05405 0.89816 -0.17300
N 	N 	0.29689 0.44640 0.39500 -0.17400
N 	N 	0.70332 0.55406 0.60183 -0.17400
C 	C 	0.67388 0.93018 0.15877 0.18500
C 	C 	0.32594 0.07003 0.84442 0.18300
C 	C 	0.32612 0.43022 0.34123 0.18400
C 	C 	0.67406 0.57012 0.65557 0.18400
C 	C 	0.77739 0.76333 0.15495 -0.09200
C 	C 	0.22244 0.23750 0.84864 -0.09600
C 	C 	0.22260 0.26326 0.34520 -0.09400
C 	C 	0.77756 0.73750 0.65136 -0.09600
C 	C 	0.82784 0.75229 0.18017 0.04600
C 	C 	0.17204 0.24841 0.82267 0.04600
C 	C 	0.17215 0.25222 0.31999 0.04600
C 	C 	0.82796 0.74841 0.67733 0.04500
C 	C 	0.83394 0.08444 0.15990 0.05600
C 	C 	0.16596 0.91561 0.84123 0.04000
C 	C 	0.16607 0.58450 0.33993 0.04700
C 	C 	0.83404 0.41562 0.65876 0.04700
C 	C 	0.78362 0.09484 0.13439 -0.08300
C 	C 	0.21624 0.90536 0.86753 -0.10300
C 	C 	0.21639 0.59489 0.36544 -0.09500
C 	C 	0.78376 0.40537 0.63246 -0.09500
C 	C 	0.75501 0.93455 0.13161 0.12600
C 	C 	0.24480 0.06599 0.87142 0.14500
C 	C 	0.24499 0.43455 0.36838 0.13900
C 	C 	0.75519 0.56599 0.62858 0.13800
C 	C 	0.60235 0.97695 0.05351 0.04800
C 	C 	0.39742 0.02329 0.94974 0.02700
C 	C 	0.39764 0.47696 0.44649 0.03700
C 	C 	0.60257 0.52331 0.55026 0.03700
C 	C 	0.63318 0.99927 0.99993 -0.05600
C 	C 	0.36657 0.00120 0.00331 -0.02300
C 	C 	0.36681 0.49925 0.50007 -0.03800
C 	C 	0.63343 0.50116 0.49670 -0.03900
C 	C 	0.61344 0.04970 0.92185 -0.04700
C 	C 	0.38629 0.95095 0.08141 -0.08100
C 	C 	0.38655 0.54965 0.57815 -0.06600
C 	C 	0.61371 0.45087 0.41861 -0.06500
C 	C 	0.62321 0.94716 0.13420 -0.07400
C 	C 	0.37660 0.05292 0.86904 -0.06200
C 	C 	0.37679 0.44720 0.36580 -0.06800
C 	C 	0.62340 0.55300 0.63096 -0.06800
C 	C 	0.85685 0.91289 0.18295 -0.11100
C 	C 	0.14308 0.08736 0.81846 -0.09800
C 	C 	0.14315 0.41288 0.31704 -0.10300
C 	C 	0.85693 0.58736 0.68154 -0.10400
H 	H 	0.85485 0.21117 0.16101 0.04000
H 	H 	0.14509 0.78858 0.83918 0.04000
H 	H 	0.14517 0.71128 0.33868 0.04000
H 	H 	0.85491 0.28859 0.66081 0.04200
H 	H 	0.76678 0.22801 0.11682 0.07100
H 	H 	0.23308 0.77198 0.88470 0.07100
H 	H 	0.23324 0.72811 0.38288 0.07000
H 	H 	0.76692 0.27199 0.61529 0.07300
H 	H 	0.63760 0.08507 0.88295 0.07100
H 	H 	0.36212 0.91578 0.12031 0.07400
H 	H 	0.36239 0.58499 0.61705 0.07300
H 	H 	0.63788 0.41567 0.37970 0.07400
C 	C 	0.47911 0.02822 0.91991 0.02900
C 	C 	0.52067 0.97179 0.08339 0.04800
C 	C 	0.52089 0.52826 0.58009 0.03900
C 	C 	0.47933 0.47182 0.41662 0.03900
C 	C 	0.46901 0.97301 0.05751 -0.05800
C 	C 	0.53075 0.02722 0.94580 -0.02300
C 	C 	0.53098 0.47301 0.44250 -0.04000
C 	C 	0.46924 0.52724 0.55421 -0.04100
C 	C 	0.44878 0.01034 0.97613 0.00800
C 	C 	0.55099 0.98982 0.02716 -0.02800
C 	C 	0.55121 0.51036 0.52387 -0.01000
C 	C 	0.44901 0.48984 0.47284 -0.00900
C 	C 	0.45622 0.03478 0.83863 -0.05600
C 	C 	0.54359 0.96488 0.16466 -0.06900
C 	C 	0.54378 0.53487 0.66137 -0.06300
C 	C 	0.45641 0.46495 0.33535 -0.06200
C 	C 	0.40642 0.05421 0.81403 0.00300
C 	C 	0.59340 0.94556 0.18922 0.01000
C 	C 	0.59358 0.55433 0.68597 0.00700
C 	C 	0.40660 0.44564 0.31078 0.00700
O 	O 	0.30608 0.09988 0.76722 -0.18500
O 	O 	0.69376 0.90024 0.23595 -0.19200
O 	O 	0.69391 0.60005 0.73277 -0.18800
O 	O 	0.30624 0.40031 0.26404 -0.19000
C 	C 	0.56318 0.06991 0.89432 0.11400
C 	C 	0.43655 0.93066 0.10898 0.12800
C 	C 	0.43682 0.56988 0.60569 0.12100
C 	C 	0.56344 0.43062 0.39103 0.12100
H 	H 	0.15587 0.38301 0.80582 0.03900
H 	H 	0.84403 0.61793 0.19748 0.03900
H 	H 	0.84413 0.88301 0.69419 0.03600
H 	H 	0.15596 0.11781 0.30281 0.04000
H 	H 	0.24411 0.36266 0.85142 0.07200
H 	H 	0.75570 0.63844 0.15308 0.07200
H 	H 	0.75589 0.86266 0.64858 0.06900
H 	H 	0.24429 0.13832 0.34721 0.07300
H 	H 	0.39124 0.06366 0.75102 0.05000
H 	H 	0.60860 0.93593 0.25222 0.04500
H 	H 	0.60876 0.56383 0.74898 0.04700
H 	H 	0.39140 0.43604 0.24778 0.04800
H 	H 	0.47539 0.01524 0.79166 0.06700
H 	H 	0.52446 0.98410 0.21168 0.06700
H 	H 	0.52462 0.51536 0.70835 0.06600
H 	H 	0.47554 0.48420 0.28833 0.06700
O 	O 	0.03855 0.20151 0.49451 -0.14200
C 	C 	0.01617 0.37687 0.47959 -0.04100
H 	H 	0.02371 0.46424 0.53377 0.07800
H 	H 	0.97643 0.36794 0.45482 0.06900
H 	H 	0.03290 0.44816 0.43510 0.06100
O 	O 	0.96835 0.78068 0.50894 -0.14900
C 	C 	0.91822 0.79386 0.47717 -0.03800
H 	H 	0.90374 0.93273 0.48922 0.04800
H 	H 	0.89928 0.68788 0.50638 0.05400
H 	H 	0.90979 0.76414 0.41243 0.05400
O 	O 	0.96145 0.70151 0.00549 -0.14200
C 	C 	0.98383 0.87687 0.02040 -0.03500
H 	H 	0.97629 0.96424 0.96623 0.07300
H 	H 	0.02357 0.86793 0.04517 0.06400
H 	H 	0.96710 0.94815 0.06489 0.05800
O 	O 	0.03165 0.28068 0.99108 -0.14800
C 	C 	0.08179 0.29408 0.02275 -0.03800
H 	H 	0.09623 0.43290 0.01052 0.05100
H 	H 	0.10072 0.18796 0.99360 0.05500
H 	H 	0.09026 0.26473 0.08752 0.05500
O 	O 	0.54666 0.16418 0.82342 -0.19900
C 	C 	0.56317 0.07853 0.76000 -0.01800
H 	H 	0.56422 0.92371 0.76458 0.03600
H 	H 	0.59917 0.13433 0.75540 0.04800
H 	H 	0.53762 0.11399 0.70386 0.04800
O 	O 	0.45301 0.83670 0.17996 -0.19900
C 	C 	0.43663 0.92331 0.24330 -0.04000
H 	H 	0.40055 0.86847 0.24797 0.04900
H 	H 	0.43581 0.07809 0.23854 0.05300
H 	H 	0.46213 0.88775 0.29948 0.04900
O 	O 	0.45332 0.66413 0.67659 -0.20100
C 	C 	0.43683 0.57838 0.74000 -0.02900
H 	H 	0.43581 0.42356 0.73542 0.04500
H 	H 	0.40082 0.63407 0.74461 0.04700
H 	H 	0.46237 0.61387 0.79615 0.04700
O 	O 	0.54698 0.33665 0.32005 -0.19700
C 	C 	0.56337 0.42321 0.25672 -0.03100
H 	H 	0.59944 0.36830 0.25205 0.05100
H 	H 	0.56420 0.57798 0.26146 0.04500
H 	H 	0.53786 0.38767 0.20054 0.05100
