data_crystal

_cell_length_a 21.66312
_cell_length_b 7.18081
_cell_length_c 14.90171
_cell_angle_alpha 89.52912
_cell_angle_beta  106.43292
_cell_angle_gamma 89.87368

_symmetry_space_group_name_	'P 1'
_symmetry_space_group_name_H-M	'P 1'

loop_
_symmetry_equiv_pos_as_xyz
  x,y,z

loop_
_atom_site_label
_atom_site_type_symbol
_atom_site_fract_x
_atom_site_fract_y
_atom_site_fract_z
_atom_site_charge
O 	O 	0.33586 0.63819 0.00211 -0.46300
O 	O 	0.66414 0.36181 0.99789 -0.46300
O 	O 	0.16414 0.13819 0.99789 -0.46400
O 	O 	0.83586 0.86181 0.00211 -0.46500
O 	O 	0.21753 0.30592 0.86196 -0.45100
O 	O 	0.78247 0.69408 0.13804 -0.45100
O 	O 	0.28247 0.80592 0.13804 -0.44800
O 	O 	0.71753 0.19408 0.86196 -0.44800
C 	C 	0.20579 0.47770 0.82594 0.32600
C 	C 	0.79421 0.52230 0.17406 0.32600
C 	C 	0.29429 0.97577 0.17419 0.32200
C 	C 	0.70571 0.02423 0.82582 0.32200
O 	O 	0.33869 0.30832 0.99324 -0.43800
O 	O 	0.66131 0.69168 0.00676 -0.43800
O 	O 	0.16131 0.80832 0.00676 -0.43700
O 	O 	0.83869 0.19168 0.99324 -0.43700
O 	O 	0.28617 0.14043 0.13010 -0.44000
O 	O 	0.71383 0.85957 0.86990 -0.44000
O 	O 	0.21383 0.64043 0.86990 -0.44200
O 	O 	0.78617 0.35957 0.13010 -0.44200
C 	C 	0.36496 0.47680 0.99769 0.37900
C 	C 	0.63504 0.52320 0.00231 0.37900
C 	C 	0.13505 0.97704 0.00239 0.37700
C 	C 	0.86495 0.02296 0.99761 0.37700
O 	O 	0.23263 0.47241 0.04475 -0.59300
O 	O 	0.76737 0.52759 0.95525 -0.59300
O 	O 	0.26737 0.97241 0.95525 -0.58900
O 	O 	0.73263 0.02759 0.04475 -0.58900
V 	V 	0.25322 0.19662 0.99170 1.79600
V 	V 	0.74678 0.80338 0.00830 1.79600
V 	V 	0.24678 0.69662 0.00830 1.79800
V 	V 	0.75322 0.30338 0.99170 1.79800
C 	C 	0.03250 0.82900 0.01935 0.35200
C 	C 	0.96750 0.17100 0.98065 0.35200
C 	C 	0.46809 0.32888 0.98227 0.35200
C 	C 	0.53191 0.67112 0.01773 0.35200
C 	C 	0.96762 0.84221 0.01741 -0.08200
C 	C 	0.03238 0.15779 0.98259 -0.08200
C 	C 	0.53292 0.34237 0.98407 -0.08100
C 	C 	0.46708 0.65763 0.01593 -0.08100
H 	H 	0.94388 0.71767 0.03193 0.13100
H 	H 	0.05612 0.28233 0.96807 0.13100
H 	H 	0.55709 0.21785 0.97076 0.13200
H 	H 	0.44292 0.78215 0.02924 0.13200
C 	C 	0.93400 0.01269 0.99814 -0.12200
C 	C 	0.06600 0.98731 0.00186 -0.12200
C 	C 	0.56597 0.51299 0.00174 -0.11900
C 	C 	0.43403 0.48701 0.99826 -0.11900
C 	C 	0.67787 0.02133 0.72435 -0.04500
C 	C 	0.32213 0.97867 0.27565 -0.04500
C 	C 	0.82223 0.50996 0.27524 -0.04400
C 	C 	0.17777 0.49004 0.72476 -0.04400
C 	C 	0.68734 0.08535 0.56973 0.03400
C 	C 	0.31266 0.91458 0.43027 0.03400
C 	C 	0.81112 0.44747 0.42901 0.03400
C 	C 	0.18888 0.55252 0.57098 0.03400
C 	C 	0.71538 0.06975 0.66572 -0.00800
C 	C 	0.28462 0.93018 0.33427 -0.00800
C 	C 	0.78348 0.46997 0.33322 -0.00800
C 	C 	0.21652 0.53000 0.66677 -0.00800
C 	C 	0.61198 0.98919 0.68704 -0.01200
C 	C 	0.38801 0.01087 0.31297 -0.01200
C 	C 	0.88877 0.52718 0.31277 -0.01500
C 	C 	0.11123 0.47285 0.68724 -0.01500
C 	C 	0.58159 0.00935 0.58981 0.03400
C 	C 	0.41840 0.99069 0.41020 0.03400
C 	C 	0.91850 0.50256 0.40984 0.03700
C 	C 	0.08150 0.49747 0.59016 0.03700
C 	C 	0.62087 0.05766 0.53125 -0.09700
C 	C 	0.37913 0.94233 0.46875 -0.09700
C 	C 	0.87812 0.46218 0.46786 -0.09800
C 	C 	0.12188 0.53784 0.53214 -0.09700
C 	C 	0.51370 0.98694 0.54930 0.03700
C 	C 	0.48629 0.01312 0.45071 0.03700
C 	C 	0.98669 0.51451 0.45075 0.03600
C 	C 	0.01331 0.48554 0.54925 0.03600
C 	C 	0.52771 0.05980 0.39581 -0.16700
C 	C 	0.47228 0.94025 0.60420 -0.16700
C 	C 	0.97089 0.44604 0.60361 -0.16700
C 	C 	0.02911 0.55402 0.39639 -0.16700
C 	C 	0.59343 0.08106 0.43515 0.35500
C 	C 	0.40657 0.91895 0.56486 0.35500
C 	C 	0.90488 0.43501 0.56385 0.35500
C 	C 	0.09512 0.56503 0.43615 0.35500
H 	H 	0.41408 0.04475 0.26337 0.05800
H 	H 	0.58591 0.95537 0.73664 0.05800
H 	H 	0.08440 0.44383 0.73647 0.05700
H 	H 	0.91559 0.55623 0.26354 0.05700
H 	H 	0.23371 0.90248 0.30550 0.07900
H 	H 	0.76629 0.09738 0.69449 0.07900
H 	H 	0.26808 0.54507 0.69582 0.07700
H 	H 	0.73193 0.45488 0.30417 0.07700
H 	H 	0.71767 0.12311 0.52585 0.07900
H 	H 	0.28233 0.87677 0.47415 0.07900
H 	H 	0.77991 0.41631 0.47252 0.07800
H 	H 	0.22010 0.58366 0.52747 0.07800
H 	H 	0.51102 0.08208 0.32138 0.12100
H 	H 	0.48897 0.91799 0.67863 0.12100
H 	H 	0.98696 0.42199 0.67794 0.12000
H 	H 	0.01303 0.57809 0.32206 0.12000
F 	F 	0.06216 0.66085 0.03946 -0.42100
F 	F 	0.93784 0.33914 0.96054 -0.42100
F 	F 	0.43905 0.16063 0.96384 -0.42300
F 	F 	0.56095 0.83937 0.03616 -0.42300
F 	F 	0.63037 0.12713 0.37829 -0.44100
F 	F 	0.36962 0.87287 0.62171 -0.44100
F 	F 	0.86693 0.39601 0.62021 -0.44100
F 	F 	0.13308 0.60404 0.37978 -0.44100
