data_crystal

_cell_length_a 7.73963
_cell_length_b 8.54045
_cell_length_c 27.66260
_cell_angle_alpha 90.91834
_cell_angle_beta  86.05728
_cell_angle_gamma 93.86419

_symmetry_space_group_name_	'P 1'
_symmetry_space_group_name_H-M	'P 1'

loop_
_symmetry_equiv_pos_as_xyz
  x,y,z

loop_
_atom_site_label
_atom_site_type_symbol
_atom_site_fract_x
_atom_site_fract_y
_atom_site_fract_z
_atom_site_charge
C 	C 	0.54602 0.79487 0.49873 0.39500
C 	C 	0.63459 0.56112 0.12640 -0.08200
C 	C 	0.51007 0.50434 0.64601 -0.11600
C 	C 	0.48971 0.49437 0.35400 -0.11600
C 	C 	0.65026 0.55113 0.02398 0.01300
C 	C 	0.34972 0.44144 0.97598 0.01300
C 	C 	0.34238 0.44947 0.02731 0.01400
C 	C 	0.65760 0.54308 0.97265 0.01400
C 	C 	0.49294 0.50360 0.05095 -0.02900
C 	C 	0.50699 0.48913 0.94901 -0.02900
C 	C 	0.79519 0.60596 0.04957 -0.06100
C 	C 	0.45398 0.20513 0.50127 0.39600
C 	C 	0.20478 0.38668 0.95038 -0.06100
C 	C 	0.78724 0.61016 0.09972 0.00700
C 	C 	0.21256 0.38301 0.90023 0.00700
C 	C 	0.50298 0.50160 0.59370 0.36900
C 	C 	0.49701 0.49830 0.40630 0.36900
C 	C 	0.81111 0.58701 0.94383 -0.06000
C 	C 	0.18887 0.40556 0.05613 -0.06000
C 	C 	0.57028 0.95848 0.49793 -0.11200
C 	C 	0.42972 0.04152 0.50206 -0.11200
C 	C 	0.67022 0.52760 0.81975 0.19000
C 	C 	0.51347 0.48356 0.89768 0.05900
C 	C 	0.32921 0.46670 0.18022 0.19000
C 	C 	0.37232 0.43392 0.82296 0.19000
C 	C 	0.62710 0.56042 0.17700 0.19000
C 	C 	0.59772 0.38021 0.71717 -0.09400
C 	C 	0.40180 0.61667 0.28256 -0.09400
C 	C 	0.59259 0.38490 0.66731 0.05200
C 	C 	0.40729 0.61334 0.33243 0.05200
C 	C 	0.43662 0.62420 0.67470 0.04500
C 	C 	0.56260 0.37359 0.32559 0.04500
C 	C 	0.44455 0.62105 0.72532 -0.05900
C 	C 	0.48630 0.50964 0.10228 0.05900
C 	C 	0.55427 0.37537 0.27497 -0.05900
C 	C 	0.52309 0.49629 0.74613 0.12700
C 	C 	0.47594 0.49968 0.25388 0.12700
C 	C 	0.36192 0.75374 0.65219 0.07400
C 	C 	0.63722 0.24456 0.34839 0.07400
C 	C 	0.37206 0.74671 0.75671 0.06200
C 	C 	0.48234 0.84972 0.78251 -0.06400
C 	C 	0.41334 0.96667 0.81253 -0.00300
C 	C 	0.23414 0.98127 0.81703 -0.04000
C 	C 	0.12376 0.87976 0.79126 0.00100
C 	C 	0.66806 0.53002 0.87030 -0.08000
C 	C 	0.19237 0.76308 0.76107 -0.05800
C 	C 	0.62623 0.24879 0.24386 0.06200
C 	C 	0.80593 0.23252 0.23929 -0.05800
C 	C 	0.87404 0.11510 0.20930 0.00100
C 	C 	0.76316 0.01274 0.18397 -0.04100
C 	C 	0.58395 0.02721 0.18871 -0.00300
C 	C 	0.51545 0.14493 0.21851 -0.06400
C 	C 	0.33163 0.46345 0.12967 -0.08000
C 	C 	0.81581 0.58042 0.89372 0.00800
C 	C 	0.18402 0.41261 0.10624 0.00800
C 	C 	0.36507 0.43242 0.87356 -0.08100
H 	H 	0.01393 0.38285 0.46345 0.08200
H 	H 	0.09736 0.34176 0.88242 0.04100
H 	H 	0.91827 0.64665 0.03226 0.04400
H 	H 	0.08177 0.34579 0.96769 0.04400
H 	H 	0.93141 0.62746 0.95851 0.04500
H 	H 	0.06865 0.36487 0.04145 0.04500
H 	H 	0.70286 0.00998 0.49393 0.09600
H 	H 	0.29714 0.99002 0.50606 0.09600
H 	H 	0.62141 0.83991 0.77918 0.05900
H 	H 	0.49872 0.04600 0.83229 0.03600
H 	H 	0.18083 0.07132 0.84042 0.05000
H 	H 	0.98606 0.61715 0.53655 0.08200
H 	H 	0.98504 0.89145 0.79470 0.04100
H 	H 	0.10590 0.68497 0.74125 0.07400
H 	H 	0.89277 0.31131 0.25877 0.07400
H 	H 	0.01276 0.10352 0.20567 0.04100
H 	H 	0.81609 0.92213 0.16073 0.05000
H 	H 	0.49819 0.94722 0.16929 0.03600
H 	H 	0.37639 0.15472 0.22201 0.05900
H 	H 	0.93620 0.61651 0.87335 0.04400
H 	H 	0.06359 0.37664 0.12661 0.04400
H 	H 	0.35067 0.70580 0.35425 0.03500
H 	H 	0.64958 0.29311 0.64528 0.03500
H 	H 	0.34193 0.71148 0.26594 0.07200
H 	H 	0.65780 0.28509 0.73356 0.07200
H 	H 	0.90237 0.65162 0.11753 0.04100
N 	N 	0.52247 0.48404 0.79744 -0.17900
N 	N 	0.47680 0.51079 0.20253 -0.17900
N 	N 	0.95032 0.45796 0.48688 -0.22800
N 	N 	0.04968 0.54204 0.51312 -0.22800
N 	N 	0.30246 0.85715 0.63420 -0.10500
N 	N 	0.69661 0.14155 0.36660 -0.10500
O 	O 	0.38925 0.73857 0.50322 -0.46100
O 	O 	0.18188 0.42366 0.20698 -0.20000
O 	O 	0.76882 0.60746 0.20065 -0.19400
O 	O 	0.23051 0.38719 0.79931 -0.19300
O 	O 	0.61075 0.26143 0.49678 -0.46100
O 	O 	0.67839 0.71163 0.49481 -0.46000
O 	O 	0.32161 0.28837 0.50519 -0.46000
O 	O 	0.35544 0.51344 0.57545 -0.43400
O 	O 	0.64456 0.48656 0.42455 -0.43400
O 	O 	0.64459 0.48650 0.56704 -0.43800
O 	O 	0.35541 0.51350 0.43296 -0.43800
O 	O 	0.81746 0.57098 0.79299 -0.20000
Zn	Zn	0.30694 0.51799 0.50562 1.23100
Zn	Zn	0.69306 0.48201 0.49438 1.23100
