data_crystal

_cell_length_a 27.79696
_cell_length_b 8.93997
_cell_length_c 8.07302
_cell_angle_alpha 90.00756
_cell_angle_beta  90.00718
_cell_angle_gamma 89.99824

_symmetry_space_group_name_	'P 1'
_symmetry_space_group_name_H-M	'P 1'

loop_
_symmetry_equiv_pos_as_xyz
  x,y,z

loop_
_atom_site_label
_atom_site_type_symbol
_atom_site_fract_x
_atom_site_fract_y
_atom_site_fract_z
_atom_site_charge
O 	O 	0.50000 0.28535 0.63685 -0.46200
O 	O 	0.50000 0.71465 0.36315 -0.46200
O 	O 	0.50000 0.71465 0.63685 -0.46200
O 	O 	0.50000 0.28535 0.36315 -0.46200
C 	C 	0.50000 0.21785 0.49999 0.40200
C 	C 	0.50000 0.78215 0.50001 0.40200
O 	O 	0.42876 0.50000 0.63686 -0.44100
O 	O 	0.57124 0.50000 0.36314 -0.44100
O 	O 	0.57124 0.50000 0.63686 -0.44100
O 	O 	0.42876 0.50000 0.36314 -0.44100
C 	C 	0.40554 0.50008 0.49999 0.43400
C 	C 	0.59446 0.49996 0.50001 0.43500
Zn	Zn	0.50000 0.50000 0.68278 1.23200
Zn	Zn	0.50000 0.50000 0.31722 1.23200
C 	C 	0.17691 0.37018 0.53419 0.22500
C 	C 	0.82310 0.62974 0.53453 0.22500
C 	C 	0.17686 0.63027 0.46536 0.22500
C 	C 	0.82313 0.36964 0.46568 0.22500
O 	O 	0.20248 0.24481 0.56454 -0.18200
O 	O 	0.79753 0.75512 0.56493 -0.18200
O 	O 	0.20239 0.75572 0.43497 -0.18200
O 	O 	0.79759 0.24419 0.43531 -0.18200
N 	N 	0.20058 0.50027 0.49978 -0.20300
N 	N 	0.79942 0.49966 0.50012 -0.20300
C 	C 	0.27670 0.51670 0.35113 -0.20100
C 	C 	0.72331 0.48361 0.35133 -0.20100
C 	C 	0.27669 0.48408 0.64864 -0.20100
C 	C 	0.72331 0.51569 0.64887 -0.20100
C 	C 	0.32683 0.52065 0.34991 0.24900
C 	C 	0.67317 0.47968 0.35000 0.24900
C 	C 	0.32682 0.48008 0.65001 0.24900
C 	C 	0.67317 0.51983 0.65015 0.24900
C 	C 	0.25186 0.50035 0.49985 0.21000
C 	C 	0.74814 0.49962 0.50011 0.21000
C 	C 	0.10115 0.50011 0.49981 0.11500
C 	C 	0.89884 0.49980 0.50004 0.11500
C 	C 	0.12645 0.36669 0.53521 -0.15200
C 	C 	0.87356 0.63323 0.53550 -0.15200
C 	C 	0.12639 0.63361 0.46438 -0.15200
C 	C 	0.87360 0.36629 0.46465 -0.15200
C 	C 	0.10058 0.23489 0.57199 0.18400
C 	C 	0.89944 0.76503 0.57222 0.18400
C 	C 	0.10047 0.76533 0.42766 0.18400
C 	C 	0.89951 0.23456 0.42789 0.18400
C 	C 	0.35253 0.50028 0.49997 -0.24500
C 	C 	0.64748 0.49982 0.50005 -0.24500
H 	H 	0.25691 0.47345 0.76368 0.10300
H 	H 	0.74308 0.52610 0.76395 0.10300
H 	H 	0.25696 0.52758 0.23603 0.10300
H 	H 	0.74307 0.47308 0.23625 0.10300
C 	C 	0.97488 0.36326 0.48824 0.03900
C 	C 	0.02512 0.63663 0.48819 0.03900
C 	C 	0.97483 0.63656 0.51167 0.03900
C 	C 	0.02517 0.36334 0.51159 0.03900
C 	C 	0.94957 0.49987 0.49998 -0.06700
C 	C 	0.05043 0.50003 0.49985 -0.06700
C 	C 	0.94934 0.23205 0.44962 -0.12800
C 	C 	0.05065 0.76784 0.44953 -0.12800
C 	C 	0.94926 0.76769 0.55036 -0.12800
C 	C 	0.05075 0.23222 0.55022 -0.12800
H 	H 	0.96771 0.12757 0.42679 0.06700
H 	H 	0.03227 0.87232 0.42679 0.06700
H 	H 	0.96761 0.87222 0.57318 0.06700
H 	H 	0.03241 0.12769 0.57306 0.06700
C 	C 	0.50000 0.06515 0.49999 -0.05700
C 	C 	0.50000 0.93485 0.50001 -0.05700
N 	N 	0.50000 0.50000 0.07364 -0.17500
N 	N 	0.50000 0.50000 0.92636 -0.17500
O 	O 	0.35047 0.46532 0.79986 -0.20200
C 	C 	0.34961 0.31345 0.84708 -0.02300
H 	H 	0.36600 0.24065 0.75029 0.05400
H 	H 	0.31238 0.27580 0.87567 0.05000
H 	H 	0.37132 0.30036 0.96147 0.06500
O 	O 	0.64950 0.53457 0.79991 -0.20200
C 	C 	0.65064 0.68622 0.84784 -0.02300
H 	H 	0.63468 0.75982 0.75099 0.05400
H 	H 	0.68790 0.72274 0.87766 0.05000
H 	H 	0.62869 0.69948 0.96166 0.06500
O 	O 	0.35044 0.53593 0.20009 -0.20200
C 	C 	0.35041 0.68848 0.15540 -0.02300
H 	H 	0.37163 0.70166 0.03994 0.06400
H 	H 	0.36779 0.75878 0.25248 0.05400
H 	H 	0.31330 0.72914 0.12967 0.05000
O 	O 	0.64952 0.46497 0.20019 -0.20200
C 	C 	0.65022 0.31305 0.15322 -0.02300
H 	H 	0.62856 0.30006 0.03868 0.06500
H 	H 	0.63367 0.24061 0.24998 0.05400
H 	H 	0.68743 0.27487 0.12501 0.05000
O 	O 	0.12410 0.10548 0.61931 -0.17800
C 	C 	0.11606 0.08068 0.78956 -0.02500
H 	H 	0.07779 0.05239 0.81461 0.03600
H 	H 	0.12739 0.17870 0.86531 0.04500
H 	H 	0.13811 0.98363 0.82907 0.05400
O 	O 	0.87593 0.89446 0.61955 -0.17800
C 	C 	0.88399 0.91928 0.78980 -0.02500
H 	H 	0.92227 0.94746 0.81488 0.03600
H 	H 	0.87263 0.82130 0.86554 0.04500
H 	H 	0.86196 0.01639 0.82931 0.05400
O 	O 	0.12395 0.89483 0.38042 -0.17800
C 	C 	0.11577 0.91998 0.21031 -0.02500
H 	H 	0.12702 0.82209 0.13421 0.04500
H 	H 	0.13781 0.01707 0.17086 0.05400
H 	H 	0.07748 0.94841 0.18566 0.03600
O 	O 	0.87603 0.10505 0.38065 -0.17800
C 	C 	0.88407 0.08016 0.21041 -0.02500
H 	H 	0.87273 0.17813 0.13461 0.04500
H 	H 	0.86201 0.98308 0.17093 0.05400
H 	H 	0.92234 0.05185 0.18537 0.03600
