data_crystal

_cell_length_a 6.94271
_cell_length_b 13.64545
_cell_length_c 20.41299
_cell_angle_alpha 102.08559
_cell_angle_beta  90.03453
_cell_angle_gamma 90.35497

_symmetry_space_group_name_	'P 1'
_symmetry_space_group_name_H-M	'P 1'

loop_
_symmetry_equiv_pos_as_xyz
  x,y,z

loop_
_atom_site_label
_atom_site_type_symbol
_atom_site_fract_x
_atom_site_fract_y
_atom_site_fract_z
_atom_site_charge
O 	O 	0.50686 0.59939 0.44924 -0.47100
O 	O 	0.18022 0.59460 0.58678 -0.49200
O 	O 	0.00450 0.40061 0.55076 -0.47000
C 	C 	0.34895 0.61606 0.61348 0.40600
O 	O 	0.17749 0.61129 0.45197 -0.47800
O 	O 	0.00175 0.41742 0.41499 -0.47900
C 	C 	0.34631 0.63822 0.43537 0.35500
O 	O 	0.50961 0.58258 0.58501 -0.48900
O 	O 	0.33742 0.43637 0.48802 -0.63500
V 	V 	0.06468 0.51180 0.50222 1.80800
O 	O 	0.67171 0.40540 0.41322 -0.50000
C 	C 	0.84075 0.38382 0.38647 0.41600
O 	O 	0.67444 0.38871 0.54803 -0.48100
C 	C 	0.84307 0.36207 0.56475 0.38300
V 	V 	0.56401 0.48820 0.49778 1.80700
O 	O 	0.84114 0.56363 0.51198 -0.64400
C 	C 	0.87183 0.11152 0.61242 -0.06700
H 	H 	0.86516 0.16173 0.51962 0.04900
H 	H 	0.88785 0.98640 0.69553 0.05800
H 	H 	0.88087 0.03339 0.58734 0.06200
C 	C 	0.85136 0.28525 0.60486 -0.10000
C 	C 	0.84998 0.31498 0.92867 0.02900
C 	C 	0.84114 0.39097 0.89295 -0.04900
C 	C 	0.84345 0.36840 0.82315 -0.02200
C 	C 	0.85492 0.26791 0.78692 -0.00700
C 	C 	0.86416 0.19028 0.82398 0.06200
C 	C 	0.85746 0.24188 0.71533 -0.01400
C 	C 	0.86928 0.13920 0.68266 0.04500
C 	C 	0.87857 0.06475 0.72015 -0.05600
C 	C 	0.87606 0.08967 0.78962 -0.04300
C 	C 	0.84871 0.31404 0.67475 0.01500
C 	C 	0.86286 0.18420 0.57376 0.04200
C 	C 	0.86137 0.21498 0.89495 -0.11600
H 	H 	0.83984 0.39323 0.69556 0.03400
H 	H 	0.84779 0.33418 0.98294 0.03000
H 	H 	0.83603 0.43153 0.79929 0.03900
H 	H 	0.83228 0.46826 0.91960 0.04500
H 	H 	0.88362 0.02897 0.81622 0.04800
C 	C 	0.01218 0.28353 0.28543 0.12700
C 	C 	0.84750 0.31451 0.31968 -0.20800
H 	H 	0.70890 0.28708 0.29911 0.09600
C 	C 	0.01344 0.21247 0.21873 -0.01600
C 	C 	0.85796 0.18335 0.18000 -0.15800
H 	H 	0.15381 0.18519 0.19990 0.04800
H 	H 	0.71527 0.20920 0.19634 0.08200
C 	C 	0.20469 0.79094 0.78238 0.02300
C 	C 	0.36391 0.81578 0.81990 -0.17000
H 	H 	0.06686 0.82120 0.80179 0.04300
H 	H 	0.50260 0.78592 0.80178 0.08900
C 	C 	0.20282 0.72251 0.71488 0.01900
C 	C 	0.36089 0.68427 0.68020 -0.16700
H 	H 	0.06148 0.70375 0.69281 0.04500
H 	H 	0.50406 0.70263 0.70025 0.08900
C 	C 	0.32635 0.88958 0.38821 0.35200
H 	H 	0.31803 0.83814 0.48061 0.10400
H 	H 	0.31733 0.01481 0.30388 0.03900
C 	C 	0.35358 0.71585 0.39571 -0.01800
C 	C 	0.37093 0.68518 0.07213 0.04400
C 	C 	0.37396 0.60941 0.10812 -0.06400
C 	C 	0.36865 0.63246 0.17788 0.00200
C 	C 	0.35956 0.73322 0.21380 -0.05400
C 	C 	0.35216 0.81049 0.17643 0.10700
C 	C 	0.35589 0.75975 0.28538 0.07600
C 	C 	0.33774 0.86229 0.31786 -0.12800
C 	C 	0.33005 0.93639 0.27989 0.08300
C 	C 	0.33854 0.91114 0.21047 -0.10500
C 	C 	0.36853 0.68791 0.32605 -0.05500
C 	C 	0.33150 0.81642 0.42664 -0.13200
C 	C 	0.35951 0.78537 0.10548 -0.13400
H 	H 	0.38787 0.60949 0.30530 0.04600
H 	H 	0.37795 0.66567 0.01792 0.02900
H 	H 	0.37048 0.56940 0.20192 0.02800
H 	H 	0.38153 0.53195 0.08173 0.04900
H 	H 	0.33249 0.97161 0.18364 0.07400
O 	O 	0.20323 0.91731 0.91502 -0.48400
O 	O 	0.53550 0.88869 0.04804 -0.48400
O 	O 	0.71108 0.08261 0.08500 -0.49500
C 	C 	0.36686 0.86253 0.06524 0.39600
O 	O 	0.53263 0.90537 0.91323 -0.49700
O 	O 	0.70819 0.09941 0.94923 -0.48100
C 	C 	0.36448 0.88422 0.88650 0.40600
O 	O 	0.20612 0.90051 0.05079 -0.47200
O 	O 	0.37536 0.06357 0.01199 -0.65000
V 	V 	0.64817 0.98820 0.99778 1.81000
O 	O 	0.03824 0.11139 0.95194 -0.48300
C 	C 	0.86964 0.13769 0.93501 0.38400
O 	O 	0.04112 0.09471 0.08675 -0.50000
C 	C 	0.87218 0.11536 0.11353 0.39800
V 	V 	0.14881 0.01193 0.00218 1.80100
O 	O 	0.87175 0.93643 0.98801 -0.64400
F 	F 	0.30692 0.98701 0.41982 -0.44500
N 	N 	0.19514 0.31719 0.31330 -0.13500
H 	H 	0.29561 0.26072 0.30828 0.09100
C 	C 	0.26946 0.40356 0.29066 -0.08900
H 	H 	0.40540 0.42919 0.31765 0.05800
H 	H 	0.16431 0.46595 0.30118 0.06200
H 	H 	0.29965 0.38406 0.23601 0.04800
