data_crystal

_cell_length_a 28.18670
_cell_length_b 7.19490
_cell_length_c 17.18828
_cell_angle_alpha 89.99998
_cell_angle_beta  101.73979
_cell_angle_gamma 90.00000

_symmetry_space_group_name_	'P 1'
_symmetry_space_group_name_H-M	'P 1'

loop_
_symmetry_equiv_pos_as_xyz
  x,y,z

loop_
_atom_site_label
_atom_site_type_symbol
_atom_site_fract_x
_atom_site_fract_y
_atom_site_fract_z
_atom_site_charge
O 	O 	0.00070 0.43651 0.85792 -0.44900
O 	O 	0.99930 0.56349 0.14208 -0.45600
O 	O 	0.99930 0.93651 0.64208 -0.45400
O 	O 	0.00070 0.06349 0.35792 -0.45200
O 	O 	0.93008 0.76638 0.72189 -0.43600
O 	O 	0.06992 0.23362 0.27811 -0.43600
O 	O 	0.06992 0.26638 0.77811 -0.43500
O 	O 	0.93008 0.73362 0.22189 -0.43500
C 	C 	0.91058 0.59779 0.70880 0.37400
C 	C 	0.08942 0.40225 0.29116 0.37400
C 	C 	0.08942 0.09775 0.79116 0.37400
C 	C 	0.91058 0.90221 0.20880 0.37200
O 	O 	0.99618 0.76623 0.86231 -0.45400
O 	O 	0.00382 0.23377 0.13769 -0.46100
O 	O 	0.00382 0.26623 0.63769 -0.45700
O 	O 	0.99618 0.73377 0.36231 -0.45700
O 	O 	0.06587 0.93646 0.78350 -0.46000
O 	O 	0.93413 0.06354 0.21650 -0.46000
O 	O 	0.93413 0.43646 0.71650 -0.46200
O 	O 	0.06587 0.56354 0.28350 -0.46200
C 	C 	0.99848 0.59646 0.89448 0.35200
C 	C 	0.00152 0.40354 0.10551 0.37000
C 	C 	0.00152 0.09646 0.60552 0.36100
C 	C 	0.99848 0.90354 0.39448 0.36000
O 	O 	0.02279 0.60302 0.72398 -0.58600
O 	O 	0.97721 0.39698 0.27602 -0.58700
O 	O 	0.97721 0.10302 0.77602 -0.58600
O 	O 	0.02279 0.89698 0.22398 -0.58700
V 	V 	0.99577 0.87790 0.75483 1.80300
V 	V 	0.00423 0.12210 0.24517 1.80300
V 	V 	0.00423 0.37790 0.74517 1.80300
V 	V 	0.99577 0.62210 0.25483 1.80300
C 	C 	0.00171 0.08265 0.51955 -0.07300
C 	C 	0.99829 0.91735 0.48045 -0.07500
C 	C 	0.99829 0.58265 0.98045 -0.04300
C 	C 	0.00171 0.41735 0.01955 -0.10500
H 	H 	0.00451 0.21147 0.48784 0.10300
H 	H 	0.99549 0.78853 0.51216 0.10300
H 	H 	0.99549 0.71147 0.01216 0.08900
H 	H 	0.00451 0.28853 0.98784 0.11600
C 	C 	0.68371 0.94864 0.02705 0.26500
C 	C 	0.31591 0.02793 0.97156 0.29300
C 	C 	0.31591 0.47207 0.47156 0.28800
C 	C 	0.68371 0.55136 0.52705 0.28800
O 	O 	0.71364 0.93505 0.97522 -0.08400
O 	O 	0.28574 0.02215 0.02322 -0.10300
O 	O 	0.28574 0.47785 0.52322 -0.09500
O 	O 	0.71364 0.56495 0.47522 -0.09500
N 	N 	0.70295 0.95226 0.10676 -0.12600
N 	N 	0.29693 0.04627 0.89220 -0.13000
N 	N 	0.29693 0.45373 0.39220 -0.13000
N 	N 	0.70295 0.54774 0.60676 -0.13000
C 	C 	0.67392 0.96864 0.16125 0.24900
C 	C 	0.32614 0.05131 0.83768 0.25100
C 	C 	0.32614 0.44869 0.33768 0.25200
C 	C 	0.67392 0.53135 0.66125 0.25200
C 	C 	0.78205 0.09340 0.16569 0.34300
C 	C 	0.21791 0.90662 0.83249 0.34300
C 	C 	0.21791 0.59338 0.33248 0.34200
C 	C 	0.78205 0.40660 0.66569 0.34200
C 	C 	0.83244 0.08067 0.19002 -0.08000
C 	C 	0.16752 0.91966 0.80840 -0.07900
C 	C 	0.16752 0.58034 0.30840 -0.08100
C 	C 	0.83244 0.41933 0.69002 -0.08100
C 	C 	0.82911 0.75572 0.15182 0.26300
C 	C 	0.17088 0.24297 0.84914 0.26500
C 	C 	0.17088 0.25703 0.34914 0.26400
C 	C 	0.82911 0.74428 0.65182 0.26400
C 	C 	0.77869 0.76937 0.12703 0.25000
C 	C 	0.22131 0.22888 0.87377 0.25100
C 	C 	0.22131 0.27112 0.37377 0.25100
C 	C 	0.77869 0.73063 0.62703 0.25000
C 	C 	0.75484 0.93808 0.13370 -0.03800
C 	C 	0.24508 0.06088 0.86562 -0.03400
C 	C 	0.24508 0.43912 0.36562 -0.03500
C 	C 	0.75484 0.56192 0.63370 -0.03400
C 	C 	0.60232 0.97695 0.05395 0.13500
C 	C 	0.39755 0.02111 0.94443 0.13900
C 	C 	0.39755 0.47889 0.44443 0.14700
C 	C 	0.60232 0.52305 0.55395 0.14700
C 	C 	0.63315 0.96000 0.99895 -0.18000
C 	C 	0.36646 0.01490 0.99940 -0.18900
C 	C 	0.36646 0.48510 0.49940 -0.20300
C 	C 	0.63315 0.54000 0.49895 -0.20300
C 	C 	0.61274 0.95370 0.91737 0.40400
C 	C 	0.38658 0.99413 0.08063 0.39500
C 	C 	0.38658 0.50587 0.58063 0.41000
C 	C 	0.61274 0.54630 0.41737 0.40900
C 	C 	0.62287 0.98278 0.13630 -0.11900
C 	C 	0.37723 0.03859 0.86232 -0.11700
C 	C 	0.37723 0.46141 0.36232 -0.12100
C 	C 	0.62287 0.51722 0.63630 -0.12100
C 	C 	0.85678 0.91206 0.18351 -0.08400
C 	C 	0.14320 0.08764 0.81627 -0.08300
C 	C 	0.14320 0.41236 0.31627 -0.08300
C 	C 	0.85678 0.58794 0.68351 -0.08300
C 	C 	0.47987 0.00902 0.91627 0.02700
C 	C 	0.52012 0.99871 0.08192 0.03800
C 	C 	0.52012 0.50129 0.58192 0.03300
C 	C 	0.47987 0.49098 0.41627 0.03400
C 	C 	0.46880 0.99879 0.05451 0.06100
C 	C 	0.53096 0.98859 0.94356 0.09000
C 	C 	0.53096 0.51141 0.44356 0.07900
C 	C 	0.46880 0.50121 0.55451 0.07900
C 	C 	0.44889 0.00962 0.97177 -0.05500
C 	C 	0.55099 0.98815 0.02643 -0.08200
C 	C 	0.55099 0.51185 0.52643 -0.07200
C 	C 	0.44889 0.49038 0.47177 -0.07200
C 	C 	0.45866 0.03056 0.83494 -0.10200
C 	C 	0.54169 0.01182 0.16342 -0.10800
C 	C 	0.54169 0.48818 0.66342 -0.10700
C 	C 	0.45866 0.46944 0.33494 -0.10700
C 	C 	0.40856 0.04433 0.80784 0.14400
C 	C 	0.59186 0.00373 0.19075 0.14800
C 	C 	0.59186 0.49627 0.69075 0.14700
C 	C 	0.40856 0.45567 0.30784 0.14600
O 	O 	0.30555 0.06952 0.76005 -0.11200
O 	O 	0.69460 0.96928 0.23925 -0.11100
O 	O 	0.69460 0.53072 0.73925 -0.11000
O 	O 	0.30555 0.43048 0.26005 -0.11400
C 	C 	0.56291 0.96690 0.89057 -0.20900
C 	C 	0.43649 0.98573 0.10729 -0.20000
C 	C 	0.43649 0.51427 0.60729 -0.20900
C 	C 	0.56291 0.53311 0.39056 -0.20900
H 	H 	0.14758 0.79784 0.78316 0.14200
H 	H 	0.85235 0.20332 0.21432 0.14200
H 	H 	0.85235 0.29668 0.71432 0.14300
H 	H 	0.14758 0.70216 0.28316 0.14100
H 	H 	0.48008 0.04182 0.78995 0.06000
H 	H 	0.52059 0.03382 0.20829 0.06200
H 	H 	0.52059 0.46618 0.70829 0.06100
H 	H 	0.48008 0.45818 0.28995 0.06100
H 	H 	0.55056 0.95510 0.82725 0.11200
H 	H 	0.44858 0.96404 0.17020 0.11000
H 	H 	0.44858 0.53596 0.67020 0.11300
H 	H 	0.55056 0.54490 0.32725 0.11200
F 	F 	0.85066 0.59049 0.14293 -0.37600
F 	F 	0.14931 0.40738 0.85937 -0.37400
F 	F 	0.14931 0.09262 0.35937 -0.37500
F 	F 	0.85066 0.90951 0.64293 -0.37500
F 	F 	0.75286 0.61809 0.09600 -0.34400
F 	F 	0.24720 0.37887 0.90613 -0.34200
F 	F 	0.24720 0.12113 0.40613 -0.34400
F 	F 	0.75286 0.88191 0.59600 -0.34300
F 	F 	0.64069 0.93372 0.86217 -0.42700
F 	F 	0.35824 0.98082 0.13556 -0.42500
F 	F 	0.35824 0.51918 0.63556 -0.42600
F 	F 	0.64069 0.56628 0.36217 -0.42800
F 	F 	0.24032 0.74312 0.82415 -0.37300
F 	F 	0.75970 0.25777 0.17256 -0.37400
F 	F 	0.75970 0.24223 0.67256 -0.37200
F 	F 	0.24032 0.75688 0.32415 -0.37400
N 	N 	0.39013 0.06441 0.72411 -0.17200
H 	H 	0.40150 0.94980 0.69522 0.11800
H 	H 	0.40552 0.18357 0.70471 0.11900
N 	N 	0.61070 0.01910 0.27455 -0.17200
H 	H 	0.59930 0.14606 0.29406 0.11800
H 	H 	0.59567 0.91267 0.30320 0.12000
N 	N 	0.61070 0.48090 0.77455 -0.17300
H 	H 	0.59930 0.35394 0.79406 0.11900
H 	H 	0.59567 0.58732 0.80320 0.12200
N 	N 	0.39013 0.43559 0.22411 -0.17300
H 	H 	0.40150 0.55020 0.19522 0.11800
H 	H 	0.40552 0.31643 0.20471 0.11900
