data_crystal

_cell_length_a 13.92823
_cell_length_b 13.92631
_cell_length_c 31.74180
_cell_angle_alpha 90.06144
_cell_angle_beta  89.96720
_cell_angle_gamma 119.98764

_symmetry_space_group_name_	'P 1'
_symmetry_space_group_name_H-M	'P 1'

loop_
_symmetry_equiv_pos_as_xyz
  x,y,z

loop_
_atom_site_label
_atom_site_type_symbol
_atom_site_fract_x
_atom_site_fract_y
_atom_site_fract_z
_atom_site_charge
C 	C 	0.56527 0.44538 0.81001 0.40500
C 	C 	0.88073 0.43499 0.69012 0.40000
C 	C 	0.55455 0.12003 0.81003 0.40300
C 	C 	0.56502 0.44551 0.69013 0.40500
C 	C 	0.88055 0.43495 0.80996 0.40100
C 	C 	0.55440 0.11940 0.69008 0.40000
C 	C 	0.44554 0.56503 0.30986 0.40500
C 	C 	0.43492 0.88041 0.19003 0.39800
C 	C 	0.11942 0.55443 0.30992 0.40200
C 	C 	0.44560 0.56475 0.19024 0.40600
C 	C 	0.43501 0.88077 0.30988 0.40200
C 	C 	0.11915 0.55422 0.19017 0.40200
C 	C 	0.00395 0.51430 0.01874 -0.01000
C 	C 	0.51794 0.01094 0.48011 -0.01100
C 	C 	0.50450 0.49157 0.02042 -0.01000
C 	C 	0.01132 0.51780 0.48204 -0.01000
C 	C 	0.52459 0.03943 0.02231 -0.00800
C 	C 	0.49737 0.49869 0.48111 -0.00900
C 	C 	0.51769 0.01132 0.51796 -0.00900
C 	C 	0.00357 0.51489 0.98089 -0.01000
C 	C 	0.49857 0.49745 0.51890 -0.00900
C 	C 	0.52585 0.04627 0.98458 -0.01300
C 	C 	0.01085 0.51798 0.51989 -0.00900
C 	C 	0.50629 0.49084 0.98263 -0.00900
C 	C 	0.94840 0.48115 0.84935 -0.07800
C 	C 	0.53327 0.05298 0.65042 -0.06300
C 	C 	0.52128 0.46582 0.85006 -0.06800
C 	C 	0.94966 0.48146 0.65104 -0.07800
C 	C 	0.53573 0.06024 0.85101 -0.07900
C 	C 	0.51946 0.46696 0.65074 -0.06800
C 	C 	0.48154 0.94980 0.34896 -0.07900
C 	C 	0.05135 0.53235 0.15086 -0.06600
C 	C 	0.46705 0.51952 0.34925 -0.06800
C 	C 	0.48269 0.95102 0.15139 -0.06800
C 	C 	0.05309 0.53339 0.34958 -0.06600
C 	C 	0.46777 0.51739 0.15146 -0.06700
C 	C 	0.95086 0.57249 0.87057 -0.01300
C 	C 	0.62232 0.05163 0.62889 -0.01700
C 	C 	0.43757 0.37529 0.87332 -0.01000
C 	C 	0.95322 0.57311 0.62970 -0.01300
C 	C 	0.62804 0.07027 0.87355 -0.01400
C 	C 	0.43498 0.37715 0.62737 -0.01100
C 	C 	0.57317 0.95336 0.37032 -0.01200
C 	C 	0.04870 0.62086 0.12950 -0.01200
C 	C 	0.37729 0.43492 0.37256 -0.01100
C 	C 	0.56729 0.94636 0.12773 -0.01800
C 	C 	0.05186 0.62250 0.37113 -0.01200
C 	C 	0.37839 0.43308 0.12784 -0.01100
C 	C 	0.97663 0.58882 0.91403 0.05600
C 	C 	0.61497 0.03257 0.58494 0.05100
C 	C 	0.43057 0.38520 0.91736 0.04600
C 	C 	0.98307 0.59120 0.58660 0.05600
C 	C 	0.62850 0.07820 0.91803 0.05500
C 	C 	0.42520 0.38917 0.58367 0.04600
C 	C 	0.59124 0.98324 0.41342 0.05600
C 	C 	0.02717 0.61247 0.08573 0.04700
C 	C 	0.38925 0.42518 0.41627 0.04600
C 	C 	0.58599 0.98181 0.08529 0.06100
C 	C 	0.03282 0.61518 0.41507 0.04800
C 	C 	0.39273 0.42085 0.08452 0.04600
C 	C 	0.00096 0.51486 0.93545 -0.04300
C 	C 	0.51805 0.01227 0.56338 -0.04900
C 	C 	0.50444 0.48626 0.93729 -0.03800
C 	C 	0.00748 0.51701 0.56528 -0.04200
C 	C 	0.52816 0.04933 0.93922 -0.03900
C 	C 	0.49720 0.49144 0.56420 -0.03800
C 	C 	0.51705 0.00765 0.43472 -0.04200
C 	C 	0.00568 0.51506 0.06418 -0.04200
C 	C 	0.49142 0.49733 0.43580 -0.03800
C 	C 	0.52256 0.02457 0.06729 -0.05000
C 	C 	0.01237 0.51819 0.43661 -0.04200
C 	C 	0.49658 0.49036 0.06567 -0.03800
C 	C 	0.02102 0.43935 0.91292 0.04300
C 	C 	0.42214 0.99199 0.58585 0.06000
C 	C 	0.57299 0.58198 0.91332 0.04900
C 	C 	0.02325 0.43878 0.58792 0.04300
C 	C 	0.42847 0.01260 0.91640 0.03700
C 	C 	0.56610 0.58625 0.58856 0.05000
C 	C 	0.43887 0.02346 0.41206 0.03800
C 	C 	0.98614 0.41954 0.08670 0.05000
C 	C 	0.58623 0.56637 0.41150 0.05000
C 	C 	0.45337 0.04797 0.09245 0.05100
C 	C 	0.99202 0.42225 0.41411 0.05100
C 	C 	0.59047 0.55844 0.09056 0.05100
C 	C 	0.99743 0.42443 0.86923 -0.00000
C 	C 	0.42866 0.00735 0.63003 -0.02600
C 	C 	0.57700 0.57245 0.86907 -0.00400
C 	C 	0.99909 0.42467 0.63151 -0.00400
C 	C 	0.43223 0.01711 0.87187 -0.01200
C 	C 	0.57325 0.57458 0.63253 -0.00400
C 	C 	0.42480 0.99931 0.36846 0.00400
C 	C 	0.00454 0.42720 0.13070 -0.01600
C 	C 	0.57462 0.57347 0.36753 -0.00300
C 	C 	0.43452 0.01260 0.13499 -0.01800
C 	C 	0.00741 0.42875 0.36995 -0.01700
C 	C 	0.57646 0.56816 0.13420 -0.00200
Cr	Cr	0.50424 0.24920 0.75000 1.56100
Cr	Cr	0.74496 0.49576 0.75000 1.55800
Cr	Cr	0.75080 0.25504 0.75000 1.56000
Cr	Cr	0.24920 0.50424 0.25000 1.56200
Cr	Cr	0.49576 0.74496 0.25000 1.55800
Cr	Cr	0.25504 0.75080 0.25000 1.56200
O 	O 	0.48035 0.14077 0.79633 -0.45800
O 	O 	0.66042 0.51965 0.70367 -0.45300
O 	O 	0.85923 0.33958 0.79633 -0.45700
O 	O 	0.48035 0.14077 0.70367 -0.45800
O 	O 	0.66042 0.51965 0.79633 -0.45400
O 	O 	0.85923 0.33958 0.70367 -0.45800
O 	O 	0.14077 0.48035 0.29633 -0.45600
O 	O 	0.51965 0.66042 0.20367 -0.45300
O 	O 	0.33958 0.85923 0.29633 -0.45600
O 	O 	0.14077 0.48035 0.20367 -0.45600
O 	O 	0.51965 0.66042 0.29633 -0.45300
O 	O 	0.33958 0.85923 0.20367 -0.45600
O 	O 	0.51493 0.34853 0.79325 -0.50700
O 	O 	0.83360 0.48507 0.70675 -0.51900
O 	O 	0.65147 0.16640 0.79325 -0.51800
O 	O 	0.51493 0.34853 0.70675 -0.50600
O 	O 	0.83360 0.48507 0.79325 -0.51800
O 	O 	0.65147 0.16640 0.70675 -0.50800
O 	O 	0.34853 0.51493 0.29325 -0.50600
O 	O 	0.48507 0.83360 0.20675 -0.51800
O 	O 	0.16640 0.65147 0.29325 -0.50500
O 	O 	0.34853 0.51493 0.20675 -0.50600
O 	O 	0.48507 0.83360 0.29325 -0.51900
O 	O 	0.16640 0.65147 0.20675 -0.50500
O 	O 	0.66667 0.33333 0.75000 -0.73700
O 	O 	0.33333 0.66667 0.25000 -0.73700
C 	C 	0.93131 0.65329 0.84682 0.11800
H 	H 	0.96647 0.67938 0.81557 0.01700
O 	O 	0.87375 0.68877 0.86117 -0.19900
C 	C 	0.72308 0.07047 0.65188 0.11400
H 	H 	0.80489 0.12919 0.64004 0.01200
O 	O 	0.71498 0.01868 0.68398 -0.18900
C 	C 	0.35752 0.27051 0.85203 0.11200
H 	H 	0.34363 0.19148 0.86378 0.01200
O 	O 	0.30525 0.27212 0.82143 -0.18200
C 	C 	0.92997 0.65229 0.65284 0.11800
H 	H 	0.96344 0.67937 0.68426 0.01600
O 	O 	0.87121 0.68535 0.63771 -0.20000
C 	C 	0.71734 0.06316 0.84988 0.11700
H 	H 	0.70243 0.03307 0.81766 0.02300
O 	O 	0.80599 0.08602 0.86574 -0.20200
C 	C 	0.35731 0.27060 0.64809 0.11300
H 	H 	0.34496 0.19294 0.63534 0.01100
O 	O 	0.30498 0.26916 0.67919 -0.18400
C 	C 	0.65232 0.93008 0.34720 0.11800
H 	H 	0.67936 0.96347 0.31578 0.01700
O 	O 	0.68543 0.87138 0.36235 -0.19900
C 	C 	0.06885 0.72223 0.15244 0.11100
H 	H 	0.12735 0.80375 0.14028 0.01400
O 	O 	0.01834 0.71494 0.18484 -0.18100
C 	C 	0.27089 0.35705 0.35176 0.11300
H 	H 	0.19311 0.34442 0.36446 0.01200
O 	O 	0.26970 0.30488 0.32063 -0.18400
C 	C 	0.63880 0.90779 0.14757 0.12100
H 	H 	0.67551 0.93967 0.17822 0.01500
O 	O 	0.65521 0.83876 0.13047 -0.20000
C 	C 	0.07079 0.72330 0.34817 0.11100
H 	H 	0.12962 0.80510 0.36001 0.01400
O 	O 	0.01895 0.71524 0.31607 -0.18000
C 	C 	0.26966 0.35841 0.14773 0.11300
H 	H 	0.19401 0.34884 0.13405 0.01200
O 	O 	0.26404 0.30506 0.17907 -0.18700
C 	C 	0.02668 0.70582 0.06114 -0.18200
H 	H 	0.02727 0.77141 0.08100 0.06600
H 	H 	0.09998 0.74488 0.04002 0.06400
H 	H 	0.94993 0.67196 0.04192 0.06500
C 	C 	0.68962 0.98914 0.43647 -0.16500
H 	H 	0.76619 0.03564 0.41741 0.06600
H 	H 	0.70726 0.03417 0.46677 0.05700
H 	H 	0.67420 0.90415 0.44272 0.07400
C 	C 	0.29878 0.33493 0.05748 -0.17800
H 	H 	0.22434 0.27552 0.07532 0.06300
H 	H 	0.27314 0.37742 0.03427 0.06300
H 	H 	0.32759 0.28429 0.04045 0.06100
C 	C 	0.03394 0.70921 0.43986 -0.18200
H 	H 	0.03425 0.77480 0.42015 0.06600
H 	H 	0.95800 0.67604 0.45954 0.06600
H 	H 	0.10810 0.74821 0.46055 0.06400
C 	C 	0.67399 0.97388 0.05959 -0.16800
H 	H 	0.75406 0.01402 0.07685 0.06500
H 	H 	0.64749 0.88557 0.05349 0.07700
H 	H 	0.69097 0.01614 0.02878 0.05800
C 	C 	0.29477 0.33881 0.44296 -0.17700
H 	H 	0.22130 0.27857 0.42486 0.06200
H 	H 	0.32389 0.28918 0.46046 0.06200
H 	H 	0.26738 0.38080 0.46575 0.06200
C 	C 	0.70892 0.03355 0.56018 -0.18800
H 	H 	0.77434 0.03354 0.57991 0.06600
H 	H 	0.67565 0.95769 0.54042 0.06900
H 	H 	0.74814 0.10783 0.53957 0.06400
C 	C 	0.97962 0.68582 0.93715 -0.17400
H 	H 	0.03009 0.76373 0.91923 0.07200
H 	H 	0.89407 0.67088 0.94128 0.07500
H 	H 	0.01887 0.70061 0.96854 0.06100
C 	C 	0.33895 0.29465 0.55692 -0.17700
H 	H 	0.27880 0.22109 0.57497 0.06200
H 	H 	0.28924 0.32367 0.53942 0.06200
H 	H 	0.38105 0.26740 0.53412 0.06200
C 	C 	0.73605 0.12079 0.94240 -0.18000
H 	H 	0.80292 0.19576 0.92674 0.08100
H 	H 	0.73187 0.14829 0.97475 0.06400
H 	H 	0.75925 0.05540 0.94438 0.07500
C 	C 	0.98895 0.68960 0.56360 -0.17400
H 	H 	0.03550 0.76618 0.58268 0.07000
H 	H 	0.03390 0.70722 0.53329 0.06100
H 	H 	0.90397 0.67420 0.55735 0.07500
C 	C 	0.34501 0.28989 0.94395 -0.17700
H 	H 	0.28423 0.21693 0.92577 0.06300
H 	H 	0.38761 0.26178 0.96611 0.06300
H 	H 	0.29593 0.31852 0.96214 0.06200
C 	C 	0.97088 0.32431 0.15543 0.11600
H 	H 	0.97616 0.25559 0.14188 0.01200
O 	O 	0.93251 0.31376 0.19084 -0.16700
C 	C 	0.35344 0.02972 0.34348 0.10200
H 	H 	0.27880 0.02296 0.35702 0.01800
O 	O 	0.38022 0.06718 0.30792 -0.15900
C 	C 	0.67591 0.62824 0.16171 0.11500
H 	H 	0.75199 0.69732 0.14967 0.02700
O 	O 	0.67498 0.59806 0.19789 -0.15600
C 	C 	0.97179 0.32525 0.34526 0.11600
H 	H 	0.97661 0.25619 0.35866 0.01200
O 	O 	0.93230 0.31459 0.31006 -0.16600
C 	C 	0.36496 0.04052 0.16213 0.11300
H 	H 	0.28663 0.02927 0.15068 0.01600
O 	O 	0.39581 0.07787 0.19750 -0.16200
C 	C 	0.67553 0.63405 0.34079 0.11400
H 	H 	0.75013 0.70456 0.35306 0.02800
O 	O 	0.67753 0.60267 0.30502 -0.15500
C 	C 	0.32517 0.97176 0.65468 0.12200
H 	H 	0.25612 0.97656 0.64128 0.01200
O 	O 	0.31454 0.93230 0.68988 -0.16800
C 	C 	0.02506 0.35087 0.84446 0.10700
H 	H 	0.00711 0.27098 0.85671 0.02900
O 	O 	0.07005 0.38028 0.81013 -0.15900
C 	C 	0.63373 0.67547 0.65933 0.11500
H 	H 	0.70414 0.75017 0.64710 0.02800
O 	O 	0.60238 0.67735 0.69511 -0.15700
C 	C 	0.32725 0.97145 0.84725 0.11600
H 	H 	0.25523 0.97178 0.86004 0.01400
O 	O 	0.31908 0.92917 0.81273 -0.16700
C 	C 	0.02943 0.35320 0.65645 0.10700
H 	H 	0.02253 0.27851 0.64289 0.01700
O 	O 	0.06698 0.37998 0.69202 -0.16100
C 	C 	0.63606 0.67448 0.84282 0.11400
H 	H 	0.70663 0.74895 0.85513 0.02800
O 	O 	0.60335 0.67756 0.80742 -0.16000
C 	C 	0.94494 0.30915 0.06441 -0.17800
H 	H 	0.92723 0.31107 0.03051 0.06400
H 	H 	0.00811 0.28304 0.06701 0.05900
H 	H 	0.86621 0.24525 0.07899 0.06700
C 	C 	0.37062 0.06664 0.43380 -0.17700
H 	H 	0.28144 0.00248 0.43262 0.05900
H 	H 	0.39308 0.08925 0.46727 0.06300
H 	H 	0.38315 0.14291 0.41776 0.07000
C 	C 	0.70546 0.62037 0.07115 -0.18400
H 	H 	0.70724 0.60287 0.03719 0.06800
H 	H 	0.73954 0.71106 0.07459 0.07300
H 	H 	0.76106 0.59630 0.08725 0.07300
C 	C 	0.95311 0.31258 0.43658 -0.17800
H 	H 	0.93917 0.31541 0.47080 0.06500
H 	H 	0.87290 0.24846 0.42304 0.06700
H 	H 	0.01585 0.28625 0.43270 0.05800
C 	C 	0.40172 0.11126 0.07293 -0.18200
H 	H 	0.33732 0.05749 0.04979 0.06000
H 	H 	0.36381 0.14211 0.09596 0.07200
H 	H 	0.46656 0.18586 0.05636 0.07000
C 	C 	0.69976 0.63216 0.43187 -0.18300
H 	H 	0.69999 0.61734 0.46614 0.06800
H 	H 	0.75802 0.60930 0.41722 0.07300
H 	H 	0.73173 0.72221 0.42742 0.07200
C 	C 	0.31251 0.95318 0.56336 -0.17800
H 	H 	0.31534 0.93928 0.52913 0.06600
H 	H 	0.24835 0.87297 0.57685 0.06700
H 	H 	0.28626 0.01597 0.56726 0.05600
C 	C 	0.06855 0.37731 0.93637 -0.17800
H 	H 	0.00412 0.31401 0.95725 0.06100
H 	H 	0.10084 0.33593 0.91571 0.07000
H 	H 	0.13997 0.43630 0.95597 0.06800
C 	C 	0.63171 0.69986 0.56827 -0.18300
H 	H 	0.61685 0.70013 0.53400 0.06800
H 	H 	0.60873 0.75800 0.58296 0.07300
H 	H 	0.72178 0.73197 0.57272 0.07200
C 	C 	0.31801 0.96952 0.93885 -0.16500
H 	H 	0.32313 0.96590 0.97357 0.06400
H 	H 	0.28334 0.02423 0.93179 0.05400
H 	H 	0.25912 0.88395 0.92802 0.06500
C 	C 	0.06641 0.37052 0.56616 -0.17900
H 	H 	0.00221 0.28135 0.56726 0.06000
H 	H 	0.08912 0.39309 0.53271 0.06400
H 	H 	0.14262 0.38296 0.58223 0.07100
C 	C 	0.64150 0.69432 0.93433 -0.18400
H 	H 	0.63026 0.69295 0.96891 0.06900
H 	H 	0.73090 0.72579 0.92836 0.07400
H 	H 	0.61805 0.75383 0.92140 0.07400
