data_crystal

_cell_length_a                    7.722813
_cell_length_b                    8.671322
_cell_length_c                    27.581033
_cell_angle_alpha                 90.97067
_cell_angle_beta                  86.142201
_cell_angle_gamma                 94.036991

_symmetry_space_group_name_	'P 1'
_symmetry_space_group_name_H-M	'P 1'

loop_
_symmetry_equiv_pos_as_xyz
  x,y,z

loop_
_atom_site_label
_atom_site_type_symbol
_atom_site_description
_atom_site_fract_x
_atom_site_fract_y
_atom_site_fract_z
_atom_type_partial_charge
O1    O     O_R   0.389250 0.738570 0.503220 -0.596399
O2    O     O_R   0.610750 0.261430 0.496780 -0.591235
O3    O     O_R   0.678390 0.711630 0.494810 -0.615181
O4    O     O_R   0.321610 0.288370 0.505190 -0.619807
C1    C     C_R   0.545564 0.794299 0.498845 0.887258
C2    C     C_R   0.454387 0.205753 0.501571 0.881600
O5    O     O_R   0.355440 0.513440 0.575450 -0.624307
O6    O     O_R   0.644560 0.486560 0.424550 -0.619382
O7    O     O_R   0.644590 0.486500 0.567040 -0.623232
O8    O     O_R   0.355410 0.513500 0.432960 -0.633013
C3    C     C_R   0.502895 0.499464 0.593978 0.882065
C4    C     C_R   0.497132 0.500326 0.405761 0.893464
Zn1   Zn    Zn3+2 0.306940 0.517990 0.505620 0.982524
Zn2   Zn    Zn3+2 0.693060 0.482010 0.494380 0.991070
C5    C     C_R   0.686414 0.566399 0.815545 0.546982
C6    C     C_R   0.510402 0.358487 0.177744 0.565713
O9    O     O_2   0.762464 0.678831 0.786565 -0.514326
O10   O     O_2   0.474611 0.233783 0.206215 -0.506662
N1    N     N_R   0.592617 0.446108 0.795005 -0.341210
N2    N     N_R   0.543011 0.499943 0.199059 -0.340474
C7    C     C_R   0.533723 0.317838 0.820524 0.583477
C8    C     C_R   0.605229 0.625594 0.172621 0.584285
C9    C     C_R   0.649285 0.368934 0.711181 -0.096959
C10   C     C_R   0.668880 0.540977 0.276558 -0.070559
C11   C     C_R   0.627194 0.383327 0.662319 -0.231377
C12   C     C_R   0.656749 0.538787 0.326613 -0.206123
C13   C     C_R   0.414123 0.575227 0.680451 0.088095
C14   C     C_R   0.342471 0.480266 0.326732 0.099957
C15   C     C_R   0.433687 0.557619 0.730606 -0.040823
C16   C     C_R   0.354989 0.487615 0.275416 -0.008738
C17   C     C_R   0.555075 0.455529 0.745228 0.204778
C18   C     C_R   0.520650 0.513998 0.250798 0.189803
C19   C     C_R   0.635579 0.441545 0.893774 -0.043041
C20   C     C_R   0.592448 0.469991 0.098860 -0.056440
C21   C     C_R   0.703555 0.571398 0.866198 -0.085219
C22   C     C_R   0.520134 0.342682 0.126702 -0.084837
C23   C     C_R   0.786528 0.698892 0.890270 -0.026324
C24   C     C_R   0.464390 0.204445 0.102728 -0.023967
C25   C     C_R   0.556926 0.311914 0.870119 -0.036109
C26   C     C_R   0.636937 0.611666 0.122390 -0.018846
C27   C     C_R   0.511668 0.486162 0.646411 -0.095376
C28   C     C_R   0.495789 0.506788 0.352483 -0.108486
C29   C     C_R   0.692288 0.586359 0.020390 0.052783
C30   C     C_R   0.572916 0.310661 0.972112 0.051773
C31   C     C_R   0.564468 0.317451 0.023749 0.038386
C32   C     C_R   0.711843 0.575420 0.968990 0.037856
C33   C     C_R   0.617671 0.457344 0.047529 0.080760
C34   C     C_R   0.641599 0.442082 0.945096 0.080431
C35   C     C_R   0.735633 0.725817 0.045548 -0.207451
C36   C     C_R   0.508615 0.178696 0.946276 -0.214912
C37   C     C_R   0.708979 0.737604 0.095466 -0.070044
C38   C     C_R   0.498394 0.180648 0.896465 -0.086945
O11   O     O_2   0.636801 0.763336 0.195071 -0.516093
O12   O     O_2   0.449964 0.197927 0.797976 -0.502886
C39   C     C_R   0.794543 0.696469 0.940549 -0.265513
C40   C     C_R   0.492797 0.192109 0.052411 -0.274788
H1    H     H_    0.775724 0.560513 0.345072 0.184289
H2    H     H_    0.702208 0.314160 0.636666 0.187350
H3    H     H_    0.795334 0.560989 0.257410 0.177171
H4    H     H_    0.742267 0.291633 0.722798 0.166093
H5    H     H_    0.743185 0.847570 0.112847 0.200578
H6    H     H_    0.441499 0.078614 0.878719 0.230781
H7    H     H_    0.784186 0.831223 0.027802 0.145624
H8    H     H_    0.459710 0.072100 0.963116 0.152359
H9    H     H_    0.864231 0.794215 0.956643 0.155161
H10   H     H_    0.448706 0.083398 0.036639 0.159829
C41   C     C_2   0.568483 0.956245 0.503433 -0.312116
C42   C     C_2   0.430923 0.043756 0.497789 -0.310010
N3    N     N_2   0.950320 0.457960 0.486880 -0.168076
N4    N     N_2   0.049680 0.542040 0.513120 -0.164468
H11   H     H_    0.014046 0.381751 0.464299 0.211276
H12   H     H_    0.985949 0.617656 0.535983 0.220037
N5    N     N_2   0.297347 0.681896 0.665056 -0.290095
H13   H     H_    0.202273 0.634599 0.643733 0.251198
C43   C     C_3   0.379048 0.827459 0.647385 -0.574711
H14   H     H_    0.457863 0.809989 0.612819 0.214264
H15   H     H_    0.463931 0.881952 0.674782 0.269841
H16   H     H_    0.277257 0.907338 0.640670 0.238324
N6    N     N_2   0.176141 0.446105 0.351215 -0.309087
H17   H     H_    0.136792 0.526747 0.376736 0.242132
C44   C     C_3   0.140461 0.286696 0.365682 -0.595768
H18   H     H_    0.224219 0.258404 0.394980 0.238675
H19   H     H_    0.164066 0.207399 0.334228 0.278329
H20   H     H_    0.001991 0.267847 0.379220 0.233169
C45   C     C_2   0.326462 0.642344 0.767841 0.984731
O13   O     O_2   0.284914 0.772596 0.759932 -0.533071
O14   O     O_R   0.272032 0.572406 0.812121 -0.809869
H21   H     H_    0.200212 0.641007 0.834400 0.368730
C46   C     C_2   0.196563 0.470468 0.247173 0.959031
O15   O     O_2   0.073983 0.380478 0.260232 -0.596137
O16   O     O_R   0.188187 0.557313 0.205216 -0.791163
H22   H     H_    0.074860 0.535147 0.189026 0.343296
C47   C     C_2   0.856066 0.843189 0.865737 0.997853
O17   O     O_2   0.008328 0.888955 0.868965 -0.620158
O18   O     O_R   0.745045 0.931237 0.841412 -0.748858
H23   H     H_    0.806736 0.028802 0.827088 0.355962
C48   C     C_2   0.357272 0.076243 0.127513 1.011165
O19   O     O_2   0.390671 0.942192 0.119260 -0.619028
O20   O     O_R   0.212126 0.108566 0.158128 -0.744722
H24   H     H_    0.147949 0.011700 0.172185 0.367393
C49   C     C_2   0.739929 0.014835 0.520164 1.021334
O21   O     O_2   0.854820 0.062043 0.490354 -0.600085
O22   O     O_R   0.767824 0.016494 0.569703 -0.823813
H25   H     H_    0.888316 0.061764 0.576706 0.358598
C50   C     C_2   0.257420 0.984500 0.482678 1.025173
O23   O     O_2   0.144058 0.943298 0.513718 -0.604855
O24   O     O_R   0.227000 0.972017 0.433366 -0.816499
H26   H     H_    0.105182 0.927076 0.427684 0.356868

loop_
_geom_bond_atom_site_label_1
_geom_bond_atom_site_label_2
_geom_bond_distance
_ccdc_geom_bond_type
O14   H21   1.013545 S    
C49   O21   1.221850 D    
C35   H7    1.075999 S    
C13   C15   1.413607 A    
C36   H8    1.074488 S    
N5    H13   1.029916 S    
O18   H23   1.013931 S    
C37   H5    1.083941 S    
O7    Zn2   2.014015 S    
N1    C17   1.426985 S    
C44   H18   1.109469 S    
C45   O13   1.222705 D    
O5    C3    1.293235 A    
C50   O24   1.396820 S    
C12   C28   1.403599 A    
C29   C32   1.417840 A    
C47   O17   1.222834 D    
C20   C26   1.411391 A    
C6    N2    1.365860 A    
C21   C23   1.416435 A    
C10   C12   1.377817 A    
C24   C48   1.485819 S    
C7    O12   1.350509 S    
Zn1   N4    2.008760 S    
O4    Zn1   2.002067 S    
N3    H11   1.028304 S    
C14   N6    1.424874 S    
C4    C28   1.472226 S    
C48   O20   1.398900 S    
C31   C40   1.413548 A    
C35   C37   1.381473 A    
C32   C39   1.411063 A    
C36   C38   1.381862 A    
O24   H26   1.013723 S    
C46   O16   1.398875 S    
C15   C45   1.491918 S    
C1    C41   1.407608 S    
C2    C42   1.406669 S    
C25   C38   1.392599 A    
C49   O22   1.397143 S    
N5    C43   1.447814 S    
O2    C2    1.267821 A    
C16   C46   1.491494 S    
C5    C21   1.411803 A    
C43   H16   1.110252 S    
C48   O19   1.222648 D    
C8    O11   1.350452 S    
C31   C33   1.417605 A    
C9    H4    1.083333 S    
C32   C34   1.414001 A    
C45   O14   1.398620 S    
C41   C42   1.366899 D    
O4    C2    1.289146 A    
C11   C27   1.400583 A    
O16   H22   1.014071 S    
N6    C44   1.447796 S    
C29   C35   1.414819 A    
C9    C17   1.391440 A    
C5    N1    1.364731 A    
C43   H14   1.110114 S    
C10   C18   1.391431 A    
C43   H15   1.111268 S    
C13   C27   1.416894 A    
O20   H24   1.013924 S    
C7    C25   1.393726 A    
O6    C4    1.296054 A    
C8    C26   1.395264 A    
C23   C47   1.482243 S    
C19   C25   1.410858 A    
O7    C3    1.291202 A    
O3    Zn2   2.002067 S    
O8    C4    1.295359 A    
C6    O10   1.349008 S    
N2    C8    1.362277 A    
Zn2   N3    2.008759 S    
O1    C1    1.267128 A    
O1    Zn1   1.973420 S    
C42   C50   1.484618 S    
C44   H20   1.110602 S    
C30   C31   1.421708 A    
C41   C49   1.484485 S    
N2    C18   1.430034 S    
C30   C36   1.415560 A    
C5    O9    1.347930 S    
O6    Zn2   1.988212 S    
N1    C7    1.360747 A    
C39   H9    1.077150 S    
O3    C1    1.289950 A    
O8    Zn1   2.014015 S    
C44   H19   1.111218 S    
C26   C37   1.392800 A    
C50   O23   1.221675 D    
C22   C24   1.413589 A    
C14   C16   1.414350 A    
C15   C17   1.415963 A    
C38   H6    1.083958 S    
C6    C22   1.409615 A    
C16   C18   1.413259 A    
C10   H3    1.082859 S    
C40   H10   1.074542 S    
C14   C28   1.424296 A    
C19   C21   1.419151 A    
C3    C27   1.459180 S    
C20   C22   1.415799 A    
C9    C11   1.378588 A    
N3    N4    1.273668 D    
O2    Zn2   1.973420 S    
C12   H1    1.083622 S    
N6    H17   1.030179 S    
C23   C39   1.392852 A    
O5    Zn1   1.988212 S    
C24   C40   1.393860 A    
C47   O18   1.398257 S    
C11   H2    1.084125 S    
O22   H25   1.013645 S    
C19   C34   1.419321 A    
N4    H12   1.029310 S    
C20   C33   1.419504 A    
C46   O15   1.222475 D    
C13   N5    1.425294 S    
C29   C33   1.422479 A    
C30   C34   1.423282 A    
