data_crystal

_cell_length_a 9.81130
_cell_length_b 10.41880
_cell_length_c 11.07680
_cell_angle_alpha 76.72100
_cell_angle_beta  76.24200
_cell_angle_gamma 65.93200

_symmetry_space_group_name_	'P 1'
_symmetry_space_group_name_H-M	'P 1'

loop_
_symmetry_equiv_pos_as_xyz
  x,y,z

loop_
_atom_site_label
_atom_site_type_symbol
_atom_site_fract_x
_atom_site_fract_y
_atom_site_fract_z
_atom_site_charge
Ho	Ho	0.94522 0.22825 0.32292 1.56800
Ho	Ho	0.05478 0.77175 0.67708 1.56800
H 	H 	0.45530 0.18500 0.10490 0.04900
H 	H 	0.30750 0.92220 0.00680 0.05700
H 	H 	0.43580 0.41560 0.20900 0.04200
H 	H 	0.74080 0.50250 0.92340 0.05600
H 	H 	0.39950 0.88240 0.67960 0.04300
H 	H 	0.34960 0.14180 0.34970 0.03500
H 	H 	0.54470 0.81500 0.89510 0.04900
H 	H 	0.69250 0.07780 0.99320 0.05700
H 	H 	0.56420 0.58440 0.79100 0.04200
H 	H 	0.25920 0.49750 0.07660 0.05600
H 	H 	0.60050 0.11760 0.32040 0.04300
H 	H 	0.65040 0.85820 0.65030 0.03500
C 	C 	0.35650 0.06590 0.06720 -0.04900
C 	C 	0.47300 0.11080 0.06270 -0.02300
C 	C 	0.38450 0.95370 0.00410 -0.04000
C 	C 	0.20520 0.13230 0.14640 0.30300
C 	C 	0.60790 0.44830 0.07930 -0.06400
C 	C 	0.46150 0.44910 0.12490 -0.02600
C 	C 	0.64460 0.50100 0.95410 -0.02800
C 	C 	0.72420 0.38950 0.16540 0.31100
C 	C 	0.35070 0.01330 0.51680 -0.12900
C 	C 	0.44020 0.92930 0.60740 -0.01300
C 	C 	0.40990 0.08480 0.40970 -0.00800
C 	C 	0.19030 0.02300 0.53280 0.46500
C 	C 	0.64350 0.93410 0.93280 -0.04900
C 	C 	0.52700 0.88920 0.93730 -0.02300
C 	C 	0.61550 0.04630 0.99590 -0.04000
C 	C 	0.79480 0.86770 0.85360 0.30300
C 	C 	0.39210 0.55170 0.92070 -0.06400
C 	C 	0.53850 0.55090 0.87510 -0.02600
C 	C 	0.35540 0.49900 0.04590 -0.02800
C 	C 	0.27580 0.61050 0.83460 0.31100
C 	C 	0.64930 0.98670 0.48320 -0.12900
C 	C 	0.55980 0.07070 0.39260 -0.01300
C 	C 	0.59010 0.91520 0.59030 -0.00800
C 	C 	0.80970 0.97700 0.46720 0.46500
O 	O 	0.11570 0.06570 0.17882 -0.36100
O 	O 	0.17280 0.24810 0.18212 -0.38400
O 	O 	0.68620 0.35050 0.27942 -0.41400
O 	O 	0.85910 0.37580 0.12267 -0.37600
O 	O 	0.14190 0.95200 0.62777 -0.48900
O 	O 	0.11550 0.10260 0.44864 -0.52500
O 	O 	0.88430 0.93430 0.82118 -0.36100
O 	O 	0.82720 0.75190 0.81788 -0.38400
O 	O 	0.31380 0.64950 0.72058 -0.41400
O 	O 	0.14090 0.62420 0.87733 -0.37600
O 	O 	0.85810 0.04800 0.37223 -0.48900
O 	O 	0.88450 0.89740 0.55136 -0.52500
