data_crystal

_cell_length_a 14.78540
_cell_length_b 14.78540
_cell_length_c 11.77400
_cell_angle_alpha 90.00000
_cell_angle_beta  90.00000
_cell_angle_gamma 90.00000

_symmetry_space_group_name_	'P 1'
_symmetry_space_group_name_H-M	'P 1'

loop_
_symmetry_equiv_pos_as_xyz
  x,y,z

loop_
_atom_site_label
_atom_site_type_symbol
_atom_site_fract_x
_atom_site_fract_y
_atom_site_fract_z
_atom_site_charge
O 	O 	0.62500 0.38016 0.59997 -0.65100
O 	O 	0.60774 0.28648 0.74083 -0.69500
C 	C 	0.59425 0.36275 0.69700 0.58200
C 	C 	0.54312 0.43076 0.75845 -0.18500
C 	C 	0.54312 0.43076 0.87672 0.01400
H 	H 	0.57563 0.37856 0.92131 0.06100
O 	O 	0.12500 0.88016 0.09997 -0.69400
O 	O 	0.10774 0.78648 0.24083 -0.71200
C 	C 	0.09425 0.86275 0.19700 0.59800
C 	C 	0.04312 0.93076 0.25845 -0.21300
C 	C 	0.04312 0.93076 0.37672 0.10900
H 	H 	0.07563 0.87856 0.42131 0.00400
O 	O 	0.87500 0.11984 0.09997 -0.69900
O 	O 	0.89226 0.21352 0.24083 -0.71200
C 	C 	0.90575 0.13725 0.19700 0.59900
C 	C 	0.95688 0.06924 0.25845 -0.22700
C 	C 	0.95688 0.06924 0.37672 0.09300
H 	H 	0.92437 0.12144 0.42131 0.00600
O 	O 	0.37500 0.61984 0.59997 -0.65200
O 	O 	0.39226 0.71352 0.74083 -0.69300
C 	C 	0.40575 0.63725 0.69700 0.58300
C 	C 	0.45688 0.56924 0.75845 -0.18400
C 	C 	0.45688 0.56924 0.87672 0.01400
H 	H 	0.42437 0.62144 0.92131 0.06300
O 	O 	0.61984 0.12500 0.84997 -0.70300
O 	O 	0.71352 0.10774 0.99083 -0.70300
C 	C 	0.63725 0.09425 0.94700 0.81600
C 	C 	0.56924 0.04312 0.00845 -0.63600
C 	C 	0.56924 0.04312 0.12672 0.27300
H 	H 	0.62144 0.07563 0.17131 -0.06100
O 	O 	0.11984 0.62500 0.34997 -0.66600
O 	O 	0.21352 0.60774 0.49083 -0.70900
C 	C 	0.13725 0.59425 0.44700 0.60200
C 	C 	0.06924 0.54312 0.50845 -0.24400
C 	C 	0.06924 0.54312 0.62672 0.10900
H 	H 	0.12144 0.57563 0.67131 0.00200
O 	O 	0.88016 0.37500 0.34997 -0.66200
O 	O 	0.78648 0.39226 0.49083 -0.70700
C 	C 	0.86275 0.40575 0.44700 0.60100
C 	C 	0.93076 0.45688 0.50845 -0.23300
C 	C 	0.93076 0.45688 0.62672 0.12100
H 	H 	0.87856 0.42437 0.67131 0.00200
O 	O 	0.38016 0.87500 0.84997 -0.69400
O 	O 	0.28648 0.89226 0.99083 -0.69700
C 	C 	0.36275 0.90575 0.94700 0.81800
C 	C 	0.43076 0.95688 0.00845 -0.61500
C 	C 	0.43076 0.95688 0.12672 0.30000
H 	H 	0.37856 0.92437 0.17131 -0.06200
O 	O 	0.87500 0.38016 0.15003 -0.60800
O 	O 	0.89226 0.28648 0.00917 -0.70600
C 	C 	0.90575 0.36275 0.05300 0.36400
C 	C 	0.95688 0.43076 0.99155 0.20600
C 	C 	0.95688 0.43076 0.87328 -0.11700
H 	H 	0.92437 0.37856 0.82869 0.08000
O 	O 	0.37500 0.88016 0.65003 -0.63900
O 	O 	0.39226 0.78648 0.50917 -0.70100
C 	C 	0.40575 0.86275 0.55300 0.58100
C 	C 	0.45688 0.93076 0.49155 -0.17600
C 	C 	0.45688 0.93076 0.37328 0.06500
H 	H 	0.42437 0.87856 0.32869 0.01500
O 	O 	0.62500 0.11984 0.65003 -0.65000
O 	O 	0.60774 0.21352 0.50917 -0.70500
C 	C 	0.59425 0.13725 0.55300 0.58400
C 	C 	0.54312 0.06924 0.49155 -0.20200
C 	C 	0.54312 0.06924 0.37328 0.03900
H 	H 	0.57563 0.12144 0.32869 0.01700
O 	O 	0.12500 0.61984 0.15003 -0.61200
O 	O 	0.10774 0.71352 0.00917 -0.70700
C 	C 	0.09425 0.63725 0.05300 0.36600
C 	C 	0.04312 0.56924 0.99155 0.19600
C 	C 	0.04312 0.56924 0.87328 -0.12800
H 	H 	0.07563 0.62144 0.82869 0.08100
O 	O 	0.88016 0.12500 0.90003 -0.60700
O 	O 	0.78648 0.10774 0.75917 -0.69900
C 	C 	0.86275 0.09425 0.80300 0.57700
C 	C 	0.93076 0.04312 0.74155 -0.18800
C 	C 	0.93076 0.04312 0.62328 0.07600
H 	H 	0.87856 0.07563 0.57869 0.01100
O 	O 	0.38016 0.62500 0.40003 -0.66200
O 	O 	0.28648 0.60774 0.25917 -0.72000
C 	C 	0.36275 0.59425 0.30300 0.60900
C 	C 	0.43076 0.54312 0.24155 -0.27100
C 	C 	0.43076 0.54312 0.12328 0.13600
H 	H 	0.37856 0.57563 0.07869 -0.04100
O 	O 	0.61984 0.37500 0.40003 -0.66300
O 	O 	0.71352 0.39226 0.25917 -0.71800
C 	C 	0.63725 0.40575 0.30300 0.61000
C 	C 	0.56924 0.45688 0.24155 -0.27000
C 	C 	0.56924 0.45688 0.12328 0.13600
H 	H 	0.62144 0.42437 0.07869 -0.04100
O 	O 	0.11984 0.87500 0.90003 -0.60100
O 	O 	0.21352 0.89226 0.75917 -0.69300
C 	C 	0.13725 0.90575 0.80300 0.57500
C 	C 	0.06924 0.95688 0.74155 -0.17100
C 	C 	0.06924 0.95688 0.62328 0.09200
H 	H 	0.12144 0.92437 0.57869 0.01100
Al	Al	0.69243 0.30757 0.50000 2.40100
Al	Al	0.19243 0.80757 -0.00000 2.39400
Al	Al	0.80757 0.19243 -0.00000 2.39400
Al	Al	0.30757 0.69243 0.50000 2.40100
Al	Al	0.69243 0.19243 0.75000 2.40200
Al	Al	0.19243 0.69243 0.25000 2.40100
Al	Al	0.80757 0.30757 0.25000 2.40100
Al	Al	0.30757 0.80757 0.75000 2.40100
O 	O 	0.75250 0.25000 0.62500 -1.03800
H 	H 	0.81494 0.25000 0.62500 0.30700
O 	O 	0.25250 0.75000 0.12500 -1.05700
H 	H 	0.31494 0.75000 0.12500 0.29000
O 	O 	0.74750 0.25000 0.12500 -1.05700
H 	H 	0.68506 0.25000 0.12500 0.28900
O 	O 	0.24750 0.75000 0.62500 -1.03800
H 	H 	0.18506 0.75000 0.62500 0.30700
O 	O 	0.75000 0.25250 0.87500 -1.01700
H 	H 	0.75000 0.31494 0.87500 0.32300
O 	O 	0.25000 0.75250 0.37500 -1.03900
H 	H 	0.25000 0.81494 0.37500 0.30700
O 	O 	0.75000 0.24750 0.37500 -1.03900
H 	H 	0.75000 0.18506 0.37500 0.30400
O 	O 	0.25000 0.74750 0.87500 -1.01600
H 	H 	0.25000 0.68506 0.87500 0.32200
C 	C 	0.50000 0.50000 0.69931 0.13400
C 	C 	0.50000 0.50000 0.93586 0.12600
H 	H 	0.50000 0.50000 0.61013 0.04300
C 	C 	0.00000 0.00000 0.19931 0.11500
C 	C 	-0.00000 -0.00000 0.43586 -0.08900
H 	H 	-0.00000 -0.00000 0.11013 0.00800
C 	C 	0.50000 -0.00000 0.94931 0.59900
C 	C 	0.50000 0.00000 0.18586 -0.23000
H 	H 	0.50000 0.00000 0.86013 -0.07900
C 	C 	0.00000 0.50000 0.44931 0.16200
C 	C 	0.00000 0.50000 0.68586 -0.11300
H 	H 	-0.00000 0.50000 0.36013 0.02300
C 	C 	0.00000 0.50000 0.05069 -0.33400
C 	C 	0.00000 0.50000 0.81414 0.11200
H 	H 	0.00000 0.50000 0.13987 0.15000
C 	C 	0.50000 -0.00000 0.55069 0.10500
C 	C 	0.50000 0.00000 0.31414 -0.00900
H 	H 	0.50000 -0.00000 0.63987 0.04800
C 	C 	-0.00000 -0.00000 0.80069 0.09300
C 	C 	0.00000 0.00000 0.56414 -0.07100
H 	H 	-0.00000 0.00000 0.88987 0.06500
C 	C 	0.50000 0.50000 0.30069 0.19200
C 	C 	0.50000 0.50000 0.06414 -0.21000
H 	H 	0.50000 0.50000 0.38987 0.02500
