data_crystal

_cell_length_a 21.85900
_cell_length_b 11.66530
_cell_length_c 7.37510
_cell_angle_alpha 90.00000
_cell_angle_beta  100.30100
_cell_angle_gamma 90.00000

_symmetry_space_group_name_	'P 1'
_symmetry_space_group_name_H-M	'P 1'

loop_
_symmetry_equiv_pos_as_xyz
  x,y,z

loop_
_atom_site_label
_atom_site_type_symbol
_atom_site_fract_x
_atom_site_fract_y
_atom_site_fract_z
_atom_site_charge
O 	O 	0.07661 0.01780 0.86860 -0.49200
O 	O 	0.04754 0.86470 0.01310 -0.50100
C 	C 	0.08510 0.92160 0.94450 0.41500
C 	C 	0.14920 0.87160 0.94570 -0.14900
C 	C 	0.18770 0.90740 0.83750 0.05000
H 	H 	0.17630 0.96850 0.75790 0.02000
C 	C 	0.24710 0.85280 0.84170 -0.12800
H 	H 	0.27200 0.88260 0.76320 0.06800
C 	C 	0.26890 0.76840 0.94110 0.03600
C 	C 	0.17060 0.78420 0.05530 0.00500
H 	H 	0.14540 0.75530 0.13370 0.01300
O 	O 	0.92339 0.01780 0.63140 -0.43000
O 	O 	0.95246 0.86470 0.48690 -0.41400
C 	C 	0.91490 0.92160 0.55550 0.40200
C 	C 	0.85080 0.87160 0.55430 -0.09700
C 	C 	0.81230 0.90740 0.66250 0.01800
H 	H 	0.82370 0.96850 0.74210 0.03500
C 	C 	0.75290 0.85280 0.65830 -0.08900
H 	H 	0.72800 0.88260 0.73680 0.05600
C 	C 	0.73110 0.76840 0.55890 0.00500
C 	C 	0.82940 0.78420 0.44470 -0.03800
H 	H 	0.85460 0.75530 0.36630 0.04600
O 	O 	0.42339 0.48220 0.13140 -0.47100
O 	O 	0.45246 0.63530 0.98690 -0.47400
C 	C 	0.41490 0.57840 0.05550 0.41800
C 	C 	0.35080 0.62840 0.05430 -0.10900
C 	C 	0.31230 0.59260 0.16250 0.02200
H 	H 	0.32370 0.53150 0.24210 0.03100
C 	C 	0.25290 0.64720 0.15830 -0.09500
H 	H 	0.22800 0.61740 0.23680 0.05300
C 	C 	0.23110 0.73160 0.05890 0.00800
C 	C 	0.32940 0.71580 0.94470 -0.03600
H 	H 	0.35460 0.74470 0.86630 0.03300
O 	O 	0.57661 0.48220 0.36860 -0.47100
O 	O 	0.54754 0.63530 0.51310 -0.47200
C 	C 	0.58510 0.57840 0.44450 0.42300
C 	C 	0.64920 0.62840 0.44570 -0.13600
C 	C 	0.68770 0.59260 0.33750 0.05300
H 	H 	0.67630 0.53150 0.25790 0.02300
C 	C 	0.74710 0.64720 0.34170 -0.13000
H 	H 	0.77200 0.61740 0.26320 0.07600
C 	C 	0.76890 0.73160 0.44110 0.05000
C 	C 	0.67060 0.71580 0.55530 -0.00200
H 	H 	0.64540 0.74470 0.63370 0.02300
Zn	Zn	0.00000 0.11603 0.75000 1.16000
Zn	Zn	0.50000 0.38397 0.25000 1.19400
O 	O 	0.57661 0.51780 0.86860 -0.47200
O 	O 	0.54754 0.36470 0.01310 -0.46900
C 	C 	0.58510 0.42160 0.94450 0.42000
C 	C 	0.64920 0.37160 0.94570 -0.14000
C 	C 	0.68770 0.40740 0.83750 0.05500
H 	H 	0.67630 0.46850 0.75790 0.02200
C 	C 	0.74710 0.35280 0.84170 -0.13300
H 	H 	0.77200 0.38260 0.76320 0.07600
C 	C 	0.76890 0.26840 0.94110 0.05000
C 	C 	0.67060 0.28420 0.05530 0.00300
H 	H 	0.64540 0.25530 0.13370 0.02200
O 	O 	0.42339 0.51780 0.63140 -0.47100
O 	O 	0.45246 0.36470 0.48690 -0.47000
C 	C 	0.41490 0.42160 0.55550 0.41500
C 	C 	0.35080 0.37160 0.55430 -0.11600
C 	C 	0.31230 0.40740 0.66250 0.02500
H 	H 	0.32370 0.46850 0.74210 0.02900
C 	C 	0.25290 0.35280 0.65830 -0.09800
H 	H 	0.22800 0.38260 0.73680 0.05300
C 	C 	0.23110 0.26840 0.55890 0.00700
C 	C 	0.32940 0.28420 0.44470 -0.02800
H 	H 	0.35460 0.25530 0.36630 0.03100
O 	O 	0.92339 0.98220 0.13140 -0.42700
O 	O 	0.95246 0.13530 0.98690 -0.41700
C 	C 	0.91490 0.07840 0.05550 0.40200
C 	C 	0.85080 0.12840 0.05430 -0.09200
C 	C 	0.81230 0.09260 0.16250 0.01500
H 	H 	0.82370 0.03150 0.24210 0.03700
C 	C 	0.75290 0.14720 0.15830 -0.08700
H 	H 	0.72800 0.11740 0.23680 0.05600
C 	C 	0.73110 0.23160 0.05890 0.00500
C 	C 	0.82940 0.21580 0.94470 -0.04400
H 	H 	0.85460 0.24470 0.86630 0.04700
O 	O 	0.07661 0.98220 0.36860 -0.49400
O 	O 	0.04754 0.13530 0.51310 -0.51000
C 	C 	0.08510 0.07840 0.44450 0.42400
C 	C 	0.14920 0.12840 0.44570 -0.14100
C 	C 	0.18770 0.09260 0.33750 0.04700
H 	H 	0.17630 0.03150 0.25790 0.02200
C 	C 	0.24710 0.14720 0.34170 -0.12500
H 	H 	0.27200 0.11740 0.26320 0.06800
C 	C 	0.26890 0.23160 0.44110 0.03700
C 	C 	0.17060 0.21580 0.55530 -0.00500
H 	H 	0.14540 0.24470 0.63370 0.01600
Zn	Zn	0.50000 0.61603 0.75000 1.19300
Zn	Zn	0.00000 0.88397 0.25000 1.16000
