data_crystal

_cell_length_a 15.97770
_cell_length_b 18.83940
_cell_length_c 22.83490
_cell_angle_alpha 96.33140
_cell_angle_beta  110.25490
_cell_angle_gamma 67.62390

_symmetry_space_group_name_	'P 1'
_symmetry_space_group_name_H-M	'P 1'

loop_
_symmetry_equiv_pos_as_xyz
  x,y,z

loop_
_atom_site_label
_atom_site_type_symbol
_atom_site_fract_x
_atom_site_fract_y
_atom_site_fract_z
_atom_site_charge
Mn	Mn	0.85597 0.76832 0.02734 1.21100
Mn	Mn	0.78453 0.95856 -0.01475 1.27500
Mn	Mn	0.14850 0.21447 0.94538 1.21300
Mn	Mn	0.20609 0.03571 1.00550 1.27300
Mn	Mn	-0.00742 -0.00107 -0.00667 1.22700
C 	C 	0.80520 0.85564 0.13886 0.08600
N 	N 	0.79966 0.85632 0.07897 -0.25100
N 	N 	0.76888 0.92934 0.06277 -0.19100
N 	N 	0.75379 0.97296 0.11041 -0.04900
N 	N 	0.77568 0.92830 0.15888 -0.07800
N 	N 	0.75866 0.10355 0.05327 -0.11500
N 	N 	0.81178 0.05146 0.02415 -0.22300
N 	N 	0.87846 0.07285 0.01856 -0.19600
N 	N 	0.87123 0.14042 0.04471 -0.09100
C 	C 	0.79669 0.15830 0.06622 0.10000
C 	C 	0.83893 0.91279 0.83497 0.13000
N 	N 	0.80838 0.98161 0.91003 -0.18100
N 	N 	0.76841 0.95150 0.85844 -0.09000
N 	N 	-0.00620 0.91401 0.04204 -0.24600
N 	N 	0.92289 0.88932 0.01831 -0.18700
N 	N 	0.95135 0.81691 0.03415 -0.19600
N 	N 	0.04089 0.79355 0.07218 -0.14000
N 	N 	0.89771 0.97014 0.91481 -0.16700
N 	N 	0.92093 0.92291 0.87047 -0.08400
C 	C 	0.06628 0.85588 0.08079 0.08800
N 	N 	0.21161 0.11641 0.90604 -0.25700
N 	N 	0.23732 0.04789 0.92998 -0.20400
N 	N 	0.28081 -0.00577 0.89658 -0.06900
N 	N 	0.28315 0.02776 0.84926 -0.09900
N 	N 	0.23667 0.88521 0.94636 -0.09800
N 	N 	0.18075 0.94019 0.97199 -0.19600
N 	N 	0.10614 0.92411 0.96974 -0.18500
N 	N 	0.11165 0.85728 0.94294 -0.09700
N 	N 	0.05797 0.06478 0.12009 -0.10700
N 	N 	0.08458 0.02781 0.07284 -0.20800
N 	N 	0.16931 0.02905 0.07848 -0.22100
N 	N 	0.20043 0.06470 0.12947 -0.10400
N 	N 	0.99440 0.08363 0.94366 -0.20300
N 	N 	0.06922 0.10467 0.96344 -0.21400
N 	N 	0.04775 0.17168 0.93861 -0.22800
N 	N 	0.96093 0.19360 0.89729 -0.09400
Cl	Cl	0.75877 0.84989 -0.05574 -0.79600
Cl	Cl	0.23080 0.14706 1.03791 -0.76300
C 	C 	0.23852 0.10379 0.85536 0.10400
C 	C 	0.19309 0.83411 0.92842 0.10300
C 	C 	0.13109 0.08665 0.15520 0.09600
C 	C 	0.92832 0.13696 0.89789 0.10400
Mn	Mn	0.22354 0.36972 0.51742 1.21000
Mn	Mn	0.24348 0.53502 0.48220 1.27100
Mn	Mn	0.75671 0.64389 0.49051 1.22500
Mn	Mn	0.74161 0.47613 0.52520 1.27500
Mn	Mn	0.49278 0.50134 0.49981 1.26700
C 	C 	0.21480 0.46681 0.63253 0.07800
N 	N 	0.20326 0.46313 0.57135 -0.25900
N 	N 	0.20103 0.52929 0.55551 -0.20000
N 	N 	0.20352 0.57496 0.60384 -0.06200
N 	N 	0.21241 0.53741 0.65279 -0.09000
N 	N 	0.28035 0.65766 0.56359 -0.11000
N 	N 	0.31256 0.60406 0.52621 -0.21400
N 	N 	0.40194 0.59329 0.53319 -0.19200
N 	N 	0.43042 0.63965 0.57693 -0.09400
C 	C 	0.35422 0.67922 0.59586 0.11700
C 	C 	0.30255 0.47260 0.32961 0.10900
N 	N 	0.28937 0.53472 0.41088 -0.20200
N 	N 	0.23881 0.51658 0.35670 -0.10500
N 	N 	0.45130 0.42829 0.53314 -0.23500
N 	N 	0.35962 0.43881 0.51748 -0.19500
N 	N 	0.35066 0.37549 0.52869 -0.21300
N 	N 	0.43528 0.32218 0.55451 -0.12100
N 	N 	0.38163 0.50767 0.41619 -0.18900
N 	N 	0.39211 0.46669 0.36623 -0.09700
C 	C 	0.49837 0.35489 0.55703 0.11800
N 	N 	0.79264 0.54712 0.44252 -0.25500
N 	N 	0.79019 0.48194 0.45591 -0.19700
N 	N 	0.82111 0.42821 0.41777 -0.05900
N 	N 	0.84255 0.45884 0.37779 -0.09000
N 	N 	0.71518 0.35293 0.44121 -0.10700
N 	N 	0.67797 0.40317 0.47873 -0.21000
N 	N 	0.58775 0.41099 0.46723 -0.19100
N 	N 	0.56428 0.36606 0.42024 -0.09700
N 	N 	0.58345 0.52743 0.63643 -0.09400
N 	N 	0.60011 0.49545 0.58485 -0.19000
N 	N 	0.69211 0.47685 0.59323 -0.20500
N 	N 	0.73668 0.49566 0.64935 -0.09400
N 	N 	0.53396 0.57411 0.46590 -0.23600
N 	N 	0.62416 0.56872 0.48615 -0.19700
N 	N 	0.63044 0.63177 0.47167 -0.20900
N 	N 	0.54559 0.67917 0.43822 -0.11600
Cl	Cl	0.16642 0.45343 0.43561 -0.79000
Cl	Cl	0.80975 0.56284 0.57346 -0.76600
C 	C 	0.82357 0.53316 0.39369 0.11700
C 	C 	0.64479 0.32972 0.40478 0.11700
C 	C 	0.66892 0.52671 0.67616 0.10100
C 	C 	0.48526 0.64313 0.43473 0.12100
C 	C 	0.87877 0.11580 0.83468 0.00200
C 	C 	0.92802 0.04797 0.80945 -0.08200
C 	C 	0.90154 0.03711 0.74493 0.10100
N 	N 	0.95220 -0.03320 0.72068 -0.17200
C 	C 	0.83060 0.09741 0.70428 -0.10200
C 	C 	0.78496 0.16824 0.72784 0.03900
C 	C 	0.71994 0.23542 0.68448 -0.01300
C 	C 	0.69377 0.31047 0.70361 -0.04200
C 	C 	0.61901 0.35908 0.65810 -0.01800
C 	C 	0.59532 0.32366 0.60219 -0.04900
S 	S 	0.65978 0.22674 0.60702 -0.01200
C 	C 	0.80560 0.17500 0.79322 -0.06500
H 	H 	0.99205 0.00565 0.83961 0.05900
H 	H 	0.00567 -0.07830 0.75071 0.03800
H 	H 	0.93673 -0.04076 0.67259 0.07500
H 	H 	0.81478 0.08987 0.65441 0.05300
H 	H 	0.72035 0.32870 0.75068 0.03400
H 	H 	0.57415 0.41473 0.66853 0.03700
H 	H 	0.77141 0.22869 0.81280 0.04300
C 	C 	0.76433 0.22641 0.10279 0.01700
C 	C 	0.76768 0.29577 0.08933 -0.09200
C 	C 	0.73532 0.36135 0.12261 0.10400
N 	N 	0.73617 0.43270 0.10757 -0.19800
C 	C 	0.70199 0.35706 0.17078 -0.10400
C 	C 	0.70083 0.28742 0.18681 0.04600
C 	C 	0.67375 0.28408 0.24259 -0.02000
C 	C 	0.63775 0.23222 0.25360 -0.03900
C 	C 	0.62043 0.24435 0.30998 -0.02700
C 	C 	0.64491 0.30427 0.34134 -0.03200
S 	S 	0.68792 0.34671 0.30209 0.01700
C 	C 	0.73042 0.22231 0.15136 -0.07200
H 	H 	0.79400 0.29914 0.05229 0.05100
H 	H 	0.76055 0.43713 0.07172 0.07000
H 	H 	0.71107 0.48217 0.13173 0.07600
H 	H 	0.67727 0.40869 0.19588 0.05800
H 	H 	0.62443 0.18740 0.22212 0.03200
H 	H 	0.59342 0.20982 0.32782 0.03000
H 	H 	0.73122 0.16785 0.16305 0.05100
C 	C 	0.86670 0.78833 0.18070 -0.01500
C 	C 	0.95931 0.74799 0.17874 -0.13000
C 	C 	1.01996 0.68182 0.21528 0.10900
N 	N 	1.11382 0.64139 0.21145 -0.18100
C 	C 	0.98788 0.65558 0.25506 -0.11500
C 	C 	0.89532 0.69593 0.25843 0.04400
C 	C 	0.86120 0.66596 0.29882 -0.02200
C 	C 	0.79909 0.71204 0.32924 -0.05300
C 	C 	0.78260 0.66933 0.36557 -0.01800
C 	C 	0.83016 0.59176 0.36066 -0.07900
S 	S 	0.89692 0.56943 0.31240 0.03000
C 	C 	0.83530 0.76333 0.22173 -0.07100
H 	H 	0.98491 0.76862 0.14920 0.03600
H 	H 	0.13682 0.66053 0.18077 0.04300
H 	H 	1.16086 0.59226 0.23897 0.10200
H 	H 	1.03519 0.60403 0.28336 0.07400
H 	H 	0.76810 0.77416 0.32607 0.03500
H 	H 	0.73707 0.69388 0.39403 -0.08200
H 	H 	0.76337 0.79414 0.22302 0.04500
C 	C 	0.10817 0.87084 0.14782 0.01300
C 	C 	0.05161 0.93336 0.17429 -0.09400
C 	C 	0.07116 0.93796 0.23870 0.13700
N 	N 	0.01082 0.00078 0.26436 -0.21700
C 	C 	0.14532 0.87823 0.27769 -0.11500
C 	C 	0.20103 0.81302 0.25322 0.04700
C 	C 	0.27370 0.74753 0.29644 -0.01600
C 	C 	0.31785 0.67429 0.27805 -0.04100
C 	C 	0.38671 0.62774 0.32761 -0.01600
C 	C 	0.39376 0.66479 0.38373 -0.05000
S 	S 	0.31604 0.75804 0.37582 -0.00700
C 	C 	0.18354 0.81092 0.18800 -0.07300
H 	H 	-0.01262 0.97633 0.14476 0.06300
H 	H 	-0.05144 0.04138 0.23533 0.06700
H 	H 	0.02700 0.00635 0.31263 0.06200
H 	H 	0.15559 0.88181 0.32708 0.06300
H 	H 	0.30452 0.65563 0.23039 0.02800
H 	H 	0.43652 0.57144 0.32206 0.03500
H 	H 	0.22376 0.76104 0.16747 0.04000
C 	C 	0.12252 0.14815 0.20124 0.01400
C 	C 	0.05350 0.16588 0.23060 -0.09700
C 	C 	0.04015 0.22821 0.27041 0.09300
N 	N 	-0.02893 0.24482 0.30147 -0.20000
C 	C 	0.09414 0.27466 0.27919 -0.11300
C 	C 	0.16238 0.25904 0.24898 0.03900
C 	C 	0.21669 0.31047 0.25720 -0.02100
C 	C 	0.31214 0.28560 0.26154 -0.04200
C 	C 	0.34885 0.34284 0.28050 -0.03000
C 	C 	0.28038 0.41109 0.28895 -0.03000
S 	S 	0.16934 0.40598 0.27162 -0.01400
C 	C 	0.17742 0.19460 0.21110 -0.08000
H 	H 	0.00957 0.13173 0.22204 0.05100
H 	H 	-0.07108 0.21161 0.29408 0.06800
H 	H 	-0.03713 0.28954 0.33297 0.06700
H 	H 	0.08288 0.32279 0.30998 0.05200
H 	H 	0.35530 0.22671 0.25600 0.03200
H 	H 	0.42399 0.33320 0.29260 0.04000
H 	H 	0.22853 0.18292 0.18681 0.05700
C 	C 	0.67883 0.57985 0.72813 0.02600
C 	C 	0.62293 0.59476 0.76687 -0.09800
C 	C 	0.62382 0.65257 0.81102 0.10900
N 	N 	0.56694 0.66771 0.85074 -0.19900
C 	C 	0.67957 0.69640 0.81542 -0.11900
C 	C 	0.73619 0.68198 0.77694 0.05500
C 	C 	0.78644 0.73400 0.77817 -0.02300
C 	C 	0.88493 0.71199 0.79560 -0.03400
C 	C 	0.91278 0.77446 0.80865 -0.02200
C 	C 	0.83472 0.84289 0.80005 -0.02100
S 	S 	0.72660 0.83095 0.77275 0.03100
C 	C 	0.73726 0.62252 0.73439 -0.08200
H 	H 	0.57847 0.56180 0.76241 0.05800
H 	H 	0.52625 0.63473 0.84860 0.08500
H 	H 	0.56703 0.71068 0.88381 0.08300
H 	H 	0.67837 0.74211 0.84873 0.07400
H 	H 	0.93476 0.65311 0.80398 0.04000
H 	H 	0.98667 0.76957 0.83019 0.05500
H 	H 	0.77858 0.61317 0.70340 0.07200
C 	C 	0.22522 0.76686 0.89108 0.01700
C 	C 	0.21367 0.69880 0.89843 -0.09600
C 	C 	0.24672 0.63452 0.86394 0.10100
N 	N 	0.23703 0.56429 0.87258 -0.19800
C 	C 	0.28888 0.63920 0.82059 -0.10700
C 	C 	0.29788 0.70817 0.81042 0.04500
C 	C 	0.33205 0.71473 0.75844 -0.01700
C 	C 	0.33248 0.78191 0.73877 -0.03500
C 	C 	0.35020 0.77379 0.68296 -0.02300
C 	C 	0.36465 0.70061 0.66110 -0.02600
S 	S 	0.35924 0.64041 0.70927 0.01100
C 	C 	0.26758 0.77122 0.84748 -0.07400
H 	H 	0.18074 0.69525 0.93175 0.05000
H 	H 	0.20473 0.56018 0.90409 0.06700
H 	H 	0.26285 0.51546 0.84793 0.07900
H 	H 	0.31249 0.58878 0.79410 0.06200
H 	H 	0.31503 0.83647 0.76143 0.04500
H 	H 	0.34632 0.82066 0.65744 0.03700
H 	H 	0.27354 0.82499 0.84156 0.06000
C 	C 	0.27266 0.39867 0.67366 -0.03300
C 	C 	0.37295 0.37567 0.69441 -0.09800
C 	C 	0.43094 0.30839 0.73058 0.09600
N 	N 	0.53281 0.28646 0.75345 -0.19800
C 	C 	0.38848 0.26415 0.74615 -0.11300
C 	C 	0.28806 0.28822 0.72796 0.02900
C 	C 	0.24565 0.24725 0.75365 -0.02100
C 	C 	0.16767 0.28452 0.77365 -0.05800
C 	C 	0.15691 0.23702 0.80939 -0.03600
C 	C 	0.22503 0.16406 0.81418 -0.07200
S 	S 	0.30223 0.15182 0.77462 -0.02200
C 	C 	0.23018 0.35541 0.69085 -0.09100
H 	H 	0.40618 0.40960 0.68193 0.05500
H 	H 	0.56300 0.32682 0.75411 0.08400
H 	H 	0.57785 0.23227 0.77386 0.08100
H 	H 	0.43441 0.21314 0.77535 0.05300
H 	H 	0.12430 0.34504 0.76628 0.02200
H 	H 	0.10368 0.25556 0.83264 -0.07200
H 	H 	0.15260 0.37421 0.67550 0.02100
