data_crystal

_cell_length_a 19.86210
_cell_length_b 17.60770
_cell_length_c 21.97720
_cell_angle_alpha 98.96350
_cell_angle_beta  110.07540
_cell_angle_gamma 70.51730

_symmetry_space_group_name_	'P 1'
_symmetry_space_group_name_H-M	'P 1'

loop_
_symmetry_equiv_pos_as_xyz
  x,y,z

loop_
_atom_site_label
_atom_site_type_symbol
_atom_site_fract_x
_atom_site_fract_y
_atom_site_fract_z
_atom_site_charge
Mn	Mn	0.86994 0.76404 0.01582 1.22200
Mn	Mn	0.83051 0.96393 -0.00486 1.28600
Mn	Mn	0.05298 0.28487 0.90635 1.21400
Mn	Mn	0.12302 0.09688 0.96613 1.27400
Mn	Mn	-0.01167 0.01769 -0.00974 1.24000
C 	C 	0.77929 0.85476 0.10822 0.09900
N 	N 	0.82463 0.85268 0.07417 -0.25500
N 	N 	0.82059 0.92848 0.07255 -0.19800
N 	N 	0.77729 0.97555 0.10624 -0.05500
N 	N 	0.75130 0.93079 0.13013 -0.08400
N 	N 	0.83284 0.10333 0.08762 -0.10900
N 	N 	0.86584 0.05437 0.04766 -0.21900
N 	N 	0.91848 0.07971 0.04150 -0.20000
N 	N 	0.92167 0.14678 0.07742 -0.09200
C 	C 	0.86773 0.16048 0.10577 0.10600
C 	C 	0.83703 0.96718 0.82059 0.17600
N 	N 	0.83902 0.99615 0.91752 -0.18900
N 	N 	0.79576 0.97975 0.86027 -0.08900
N 	N 	-0.00211 0.91377 0.03307 -0.22500
N 	N 	0.93656 0.89060 0.01453 -0.18500
N 	N 	0.95249 0.81547 0.02787 -0.19100
N 	N 	0.02461 0.78817 0.06041 -0.11700
N 	N 	0.90387 0.99477 0.91391 -0.17400
N 	N 	0.90587 0.97483 0.85364 -0.07000
C 	C 	0.05229 0.85201 0.07011 0.11100
N 	N 	0.09797 0.18573 0.85601 -0.26500
N 	N 	0.12307 0.11320 0.87838 -0.20300
N 	N 	0.15562 0.06009 0.83983 -0.06200
N 	N 	0.15398 0.09848 0.79200 -0.09000
N 	N 	0.14690 0.93848 0.89589 -0.09400
N 	N 	0.11073 0.98665 0.93441 -0.19100
N 	N 	0.06103 0.95698 0.94076 -0.18600
N 	N 	0.06301 0.88761 0.90634 -0.08100
N 	N 	0.12182 0.00727 0.11934 -0.10800
N 	N 	0.08038 0.04126 0.06282 -0.20100
N 	N 	0.11444 0.08790 0.05169 -0.20200
N 	N 	0.17125 0.09437 0.10191 -0.07400
N 	N 	0.96304 0.12466 0.94447 -0.20400
N 	N 	0.01543 0.15121 0.93994 -0.22100
N 	N 	-0.01207 0.22463 0.91875 -0.22200
N 	N 	0.91460 0.24874 0.90535 -0.09400
Cl	Cl	0.79601 0.85519 -0.06088 -0.72400
Cl	Cl	0.13757 0.22154 0.99650 -0.71600
C 	C 	0.11945 0.17726 0.80310 0.16900
C 	C 	0.11681 0.87752 0.87835 0.11900
C 	C 	0.17744 0.04363 0.14395 0.11000
C 	C 	0.89787 0.18615 0.91958 0.11300
Mn	Mn	0.30404 0.32322 0.52365 1.21700
Mn	Mn	0.29673 0.48703 0.45003 1.28100
Mn	Mn	0.67005 0.68825 0.46191 1.23500
Mn	Mn	0.67615 0.51487 0.52223 1.28300
Mn	Mn	0.48648 0.50125 0.48549 1.27200
C 	C 	0.26613 0.47087 0.61498 0.11000
N 	N 	0.26535 0.43862 0.55530 -0.25300
N 	N 	0.24970 0.50079 0.52073 -0.19100
N 	N 	0.23383 0.56855 0.55559 -0.04400
N 	N 	0.24353 0.55189 0.61502 -0.08700
N 	N 	0.27854 0.65181 0.49851 -0.09400
N 	N 	0.32456 0.58869 0.47766 -0.20500
N 	N 	0.39417 0.59179 0.50156 -0.18500
N 	N 	0.39510 0.65533 0.54319 -0.09900
C 	C 	0.32246 0.69219 0.54109 0.16800
C 	C 	0.38282 0.38965 0.31150 0.20600
N 	N 	0.34575 0.47114 0.38279 -0.19500
N 	N 	0.32234 0.42753 0.33038 -0.07400
N 	N 	0.46352 0.42306 0.52820 -0.23500
N 	N 	0.39469 0.41687 0.51029 -0.19000
N 	N 	0.39638 0.35205 0.53441 -0.21100
N 	N 	0.46477 0.31468 0.56996 -0.12700
N 	N 	0.41766 0.46486 0.39574 -0.16600
N 	N 	0.44265 0.41200 0.35206 -0.05700
C 	C 	0.50706 0.35851 0.56581 0.16900
N 	N 	0.71616 0.57754 0.42791 -0.24800
N 	N 	0.72211 0.51041 0.45170 -0.18100
N 	N 	0.73773 0.44891 0.41061 -0.03800
N 	N 	0.74013 0.47565 0.35850 -0.08200
N 	N 	0.69069 0.35670 0.46129 -0.10400
N 	N 	0.64778 0.41509 0.48887 -0.20400
N 	N 	0.57844 0.41083 0.46893 -0.18000
N 	N 	0.57487 0.35087 0.42430 -0.08100
N 	N 	0.53091 0.59210 0.61735 -0.07400
N 	N 	0.55503 0.53622 0.57493 -0.17200
N 	N 	0.62833 0.52304 0.58958 -0.19600
N 	N 	0.65353 0.56394 0.64306 -0.08900
N 	N 	0.51043 0.57969 0.44336 -0.23100
N 	N 	0.57908 0.58710 0.46384 -0.18700
N 	N 	0.57856 0.65205 0.44080 -0.20400
N 	N 	0.51113 0.68839 0.40295 -0.11900
Cl	Cl	0.26503 0.37066 0.42212 -0.75000
Cl	Cl	0.70755 0.63053 0.55817 -0.74400
C 	C 	0.72536 0.55600 0.36968 0.18100
C 	C 	0.64479 0.31831 0.41900 0.16000
C 	C 	0.59284 0.60945 0.65926 0.13200
C 	C 	0.46871 0.64302 0.40421 0.18800
C 	C 	0.82161 0.17897 0.88297 -0.00600
C 	C 	0.79250 0.20150 0.81801 -0.05400
C 	C 	0.71656 0.21554 0.78363 0.06900
C 	C 	0.68270 0.26183 0.72420 -0.06800
C 	C 	0.68225 0.22422 0.66307 -0.03400
C 	C 	0.63381 0.26511 0.60681 -0.00100
C 	C 	0.58407 0.34311 0.61122 -0.12000
C 	C 	0.59201 0.38371 0.67256 0.23800
F 	F 	0.54206 0.45656 0.67938 -0.42700
C 	C 	0.64177 0.34338 0.72850 0.21400
F 	F 	0.64411 0.38090 0.78768 -0.42600
C 	C 	0.66939 0.19984 0.81174 -0.05600
C 	C 	0.69633 0.17405 0.87581 -0.00500
C 	C 	0.64140 0.15661 0.90382 0.09600
C 	C 	0.67778 0.13120 0.97466 -0.16500
C 	C 	0.61193 0.08764 0.86310 -0.19900
C 	C 	0.57386 0.23265 0.90230 -0.20000
C 	C 	0.77228 0.16920 0.91232 -0.04700
H 	H 	0.82738 0.21638 0.79587 0.05800
H 	H 	0.71406 0.16142 0.65885 0.03400
H 	H 	0.62724 0.23156 0.56040 0.02700
H 	H 	0.61027 0.21225 0.78416 0.04400
H 	H 	0.69761 0.17985 1.00681 0.07100
H 	H 	0.63648 0.11951 0.99282 0.05800
H 	H 	0.72492 0.07460 0.97840 -0.02400
H 	H 	0.56991 0.07729 0.88112 0.05500
H 	H 	0.65836 0.03038 0.86608 0.06100
H 	H 	0.58407 0.10172 0.81125 0.05600
H 	H 	0.59380 0.28497 0.92659 0.07600
H 	H 	0.53734 0.22393 0.92763 0.06700
H 	H 	0.53785 0.24661 0.85182 0.06500
H 	H 	0.79281 0.16016 0.96339 0.03800
C 	C 	0.84464 0.23094 0.14764 0.00400
C 	C 	0.80015 0.22885 0.18452 -0.07100
C 	C 	0.77379 0.29611 0.22227 0.08200
C 	C 	0.73008 0.29034 0.26367 -0.06800
C 	C 	0.76072 0.23010 0.30926 -0.02100
C 	C 	0.72579 0.23150 0.35525 -0.00900
C 	C 	0.65904 0.29222 0.35604 -0.08500
C 	C 	0.62414 0.34729 0.30587 0.23900
F 	F 	0.56093 0.40878 0.30594 -0.38300
C 	C 	0.65954 0.34641 0.26026 0.23000
F 	F 	0.62669 0.40288 0.21476 -0.40500
C 	C 	0.79188 0.36712 0.22231 -0.05500
C 	C 	0.83798 0.37043 0.18614 -0.01000
C 	C 	0.86027 0.44630 0.18511 0.12600
C 	C 	0.82317 0.47970 0.11656 -0.21000
C 	C 	0.94677 0.42526 0.20361 -0.22000
C 	C 	0.83458 0.51440 0.23293 -0.22600
C 	C 	0.86299 0.30118 0.14837 -0.04000
H 	H 	0.78490 0.17490 0.18339 0.05500
H 	H 	0.81431 0.18504 0.31216 0.03700
H 	H 	0.75434 0.18985 0.39402 0.03800
H 	H 	0.77033 0.41871 0.25124 0.07800
H 	H 	0.76114 0.49420 0.10297 0.07400
H 	H 	0.83633 0.53587 0.11474 0.06200
H 	H 	0.84255 0.43548 0.07957 0.06700
H 	H 	0.96372 0.48031 0.20690 0.08700
H 	H 	0.96920 0.38310 0.16715 0.09000
H 	H 	0.97460 0.39716 0.25142 0.09500
H 	H 	0.77245 0.53448 0.21932 0.09100
H 	H 	0.85242 0.56745 0.23140 0.10300
H 	H 	0.85895 0.49427 0.28351 0.10300
H 	H 	0.89554 0.30225 0.11808 0.04700
C 	C 	0.74425 0.79232 0.10357 -0.04000
C 	C 	0.72603 0.78140 0.15663 -0.04400
C 	C 	0.69247 0.72214 0.15414 0.06000
C 	C 	0.68932 0.69753 0.21499 -0.06900
C 	C 	0.63513 0.66083 0.21236 -0.03400
C 	C 	0.64479 0.61705 0.26413 0.00100
C 	C 	0.70640 0.61302 0.32040 -0.15400
C 	C 	0.75364 0.65924 0.32731 0.22100
F 	F 	0.81178 0.65809 0.38267 -0.43400
C 	C 	0.74653 0.69997 0.27494 0.20600
F 	F 	0.80169 0.73271 0.28176 -0.42300
C 	C 	0.66787 0.68170 0.09376 -0.06900
C 	C 	0.67899 0.69768 0.03734 -0.02000
C 	C 	0.64328 0.65951 -0.02921 0.11900
C 	C 	0.66042 0.68359 -0.08601 -0.21900
C 	C 	0.55690 0.68758 -0.04433 -0.21900
C 	C 	0.67321 0.56668 -0.02745 -0.22500
C 	C 	0.72068 0.75127 0.04415 -0.05700
H 	H 	0.73938 0.81908 0.20008 0.08800
H 	H 	0.58750 0.66196 0.16914 0.04600
H 	H 	0.60547 0.58451 0.25937 0.07300
H 	H 	0.64053 0.63682 0.09030 0.04500
H 	H 	0.72204 0.66415 -0.07822 0.05900
H 	H 	0.63412 0.65417 0.86730 0.09000
H 	H 	0.63752 0.74987 -0.09161 0.07700
H 	H 	0.52924 0.66198 0.90770 0.07600
H 	H 	0.53489 0.75451 -0.04532 0.07100
H 	H 	0.54010 0.66838 -0.00729 0.07200
H 	H 	0.73573 0.54629 -0.01195 0.06600
H 	H 	0.65270 0.53814 0.92376 0.09200
H 	H 	0.65431 0.54398 0.00621 0.07300
H 	H 	0.73183 0.76533 0.00308 -0.01400
C 	C 	0.08444 0.86684 0.14145 -0.00400
C 	C 	0.15887 0.82364 0.17619 -0.04600
C 	C 	0.17818 0.81129 0.24305 0.07000
C 	C 	0.25364 0.76343 0.28345 -0.06000
C 	C 	0.28214 0.79140 0.34779 -0.03300
C 	C 	0.34709 0.74459 0.39068 0.01100
C 	C 	0.38761 0.66928 0.37021 -0.12200
C 	C 	0.35932 0.63977 0.30627 0.24800
F 	F 	0.39959 0.56914 0.28392 -0.37800
C 	C 	0.29196 0.68594 0.26343 0.22100
F 	F 	0.26390 0.65452 0.20317 -0.40000
C 	C 	0.12228 0.83849 0.27330 -0.05800
C 	C 	0.04744 0.87712 0.23979 -0.04100
C 	C 	0.98430 0.88193 0.26761 0.15300
C 	C 	0.94837 0.81530 0.23251 -0.22300
C 	C 	0.92476 0.96551 0.25734 -0.23200
C 	C 	1.01240 0.86740 0.34133 -0.19800
C 	C 	0.03073 0.89592 0.17505 -0.02700
H 	H 	0.19997 0.79687 0.15078 0.08100
H 	H 	0.25382 0.85022 0.36529 0.04800
H 	H 	0.36889 0.77028 0.43875 0.03500
H 	H 	0.13767 0.82337 0.32295 0.05100
H 	H 	0.98980 0.75456 0.24447 0.08700
H 	H 	0.89859 0.81967 0.24681 0.10100
H 	H 	0.93089 0.81917 0.17936 0.06700
H 	H 	0.87974 0.96934 0.27781 0.09500
H 	H 	0.89741 0.97812 0.20545 0.10100
H 	H 	0.95093 1.01354 0.28167 0.10000
H 	H 	1.04839 0.80418 0.35176 0.10300
H 	H 	0.96446 0.87679 0.35977 0.10200
H 	H 	0.04441 0.90944 0.36928 0.08100
H 	H 	-0.02719 0.92266 0.14721 0.02400
C 	C 	0.25597 0.00699 0.18322 -0.00600
C 	C 	0.29006 0.06411 0.22208 -0.05500
C 	C 	0.35075 0.07763 0.21071 0.06800
C 	C 	0.36547 0.15713 0.23086 -0.06700
C 	C 	0.43496 0.16377 0.27345 -0.02900
C 	C 	0.44481 0.24026 0.29550 -0.00400
C 	C 	0.38569 0.31123 0.27385 -0.07500
C 	C 	0.31897 0.30369 0.22659 0.24700
F 	F 	0.26114 0.37064 0.20373 -0.39000
C 	C 	0.30882 0.22789 0.20576 0.22200
F 	F 	0.24250 0.22383 0.16174 -0.39400
C 	C 	0.38305 0.02651 0.16589 -0.06500
C 	C 	0.35474 -0.03673 0.13092 -0.00900
C 	C 	0.37619 -0.07536 0.06912 0.09700
C 	C 	0.34133 -0.14376 1.03610 -0.19300
C 	C 	0.46235 -0.11102 0.08547 -0.20600
C 	C 	0.34729 -0.00976 0.01894 -0.18900
C 	C 	0.29660 -0.05120 0.14673 -0.04800
H 	H 	0.25916 0.11002 0.24986 0.06400
H 	H 	0.48024 0.10997 0.29180 0.03000
H 	H 	0.49651 0.24373 0.33262 0.04600
H 	H 	0.42527 0.04167 0.15381 0.04800
H 	H 	0.27902 -0.11997 1.01718 0.05700
H 	H 	0.36088 -0.17215 0.99385 0.05400
H 	H 	0.35763 -0.19149 1.07056 0.06600
H 	H 	0.47783 -0.13982 1.04145 0.06100
H 	H 	0.48493 -0.15720 0.12233 0.06200
H 	H 	0.49084 -0.06380 0.10403 0.06500
H 	H 	0.28545 0.01842 0.00725 0.02700
H 	H 	0.35955 -0.03598 0.97308 0.05700
H 	H 	0.37424 0.03887 0.03722 0.06900
H 	H 	0.27030 -0.09557 0.11875 0.03300
C 	C 	0.59267 0.69061 0.69129 0.01000
C 	C 	0.65463 0.71773 0.69880 -0.06200
C 	C 	0.65258 0.79764 0.71768 0.08400
C 	C 	0.71454 0.82876 0.72044 -0.06700
C 	C 	0.69708 0.90485 0.69651 -0.02500
C 	C 	0.74984 0.94711 0.71697 -0.00700
C 	C 	0.81952 0.91466 0.76302 -0.07700
C 	C 	0.84255 0.83219 0.77523 0.24400
F 	F 	0.91034 0.79906 0.81911 -0.40800
C 	C 	0.78947 0.78985 0.75550 0.23200
F 	F 	0.80834 0.71645 0.77944 -0.41500
C 	C 	0.59103 0.84943 0.73530 -0.07100
C 	C 	0.52823 0.82522 0.72941 -0.01000
C 	C 	0.46179 0.88766 0.74806 0.12200
C 	C 	0.39414 0.85620 0.73418 -0.21700
C 	C 	0.43415 0.96414 0.70894 -0.21300
C 	C 	0.48767 0.91054 0.82126 -0.21300
C 	C 	0.52950 0.74491 0.70609 -0.04400
H 	H 	0.70346 0.67801 0.68657 0.10900
H 	H 	0.64002 0.93544 0.66837 0.03100
H 	H 	0.73102 1.01048 0.70694 0.04300
H 	H 	0.59226 0.90988 0.75332 0.05200
H 	H 	0.40997 0.80257 0.76262 0.07400
H 	H 	0.34751 0.90273 0.74821 0.08600
H 	H 	0.37266 0.84118 0.68157 0.08500
H 	H 	0.38223 1.00727 0.71715 0.08100
H 	H 	0.42167 0.94765 0.65620 0.07500
H 	H 	0.47654 0.99706 0.72302 0.07100
H 	H 	0.50822 0.85606 0.84996 0.07500
H 	H 	0.44047 0.95475 0.83616 0.07900
H 	H 	0.53365 0.93838 0.83397 0.08000
H 	H 	0.48204 0.72405 0.69864 0.04700
C 	C 	0.13594 0.81298 0.82971 0.01300
C 	C 	0.17270 0.82245 0.78777 -0.06000
C 	C 	0.18926 0.76147 0.74099 0.08500
C 	C 	0.23000 0.76666 0.69697 -0.06900
C 	C 	0.30442 0.71782 0.70780 -0.02500
C 	C 	0.33813 0.70048 0.65878 -0.01400
C 	C 	0.29871 0.73419 0.59787 -0.08700
C 	C 	0.22562 0.78864 0.58847 0.23800
F 	F 	0.18465 0.82036 0.52962 -0.40800
C 	C 	0.19141 0.80428 0.63754 0.23000
F 	F 	0.11827 0.84950 0.62458 -0.39500
C 	C 	0.16958 0.69105 0.73671 -0.06600
C 	C 	0.13401 0.67935 0.77870 -0.00600
C 	C 	0.11324 0.60158 0.77555 0.12700
C 	C 	0.02777 0.62274 0.76275 -0.22300
C 	C 	0.15583 0.55943 0.84052 -0.21000
C 	C 	0.13364 0.54073 0.72118 -0.23000
C 	C 	0.11731 0.74177 0.82490 -0.03800
H 	H 	0.18775 0.87707 0.79083 0.07700
H 	H 	0.33443 0.68892 0.75307 0.03000
H 	H 	0.39244 0.65499 0.66682 0.04900
H 	H 	0.18280 0.64592 0.69986 0.06400
H 	H 	-0.00375 0.65893 0.71891 0.10000
H 	H 	0.01047 0.56712 0.75511 0.08200
H 	H 	0.01106 0.65810 0.80448 0.10900
H 	H 	0.14192 0.50276 0.83889 0.06300
H 	H 	0.14051 0.59851 0.88156 0.07300
H 	H 	0.21764 0.54394 0.85076 0.07300
H 	H 	0.10438 0.56730 0.67292 0.09800
H 	H 	0.11687 0.48626 0.71962 0.11100
H 	H 	0.19513 0.52156 0.72987 0.09100
H 	H 	0.09018 0.73485 0.85793 0.05900
C 	C 	0.30343 0.42804 0.67502 -0.05000
C 	C 	0.27589 0.37032 0.68577 -0.06700
C 	C 	0.28417 0.35619 0.74936 0.05200
C 	C 	0.23681 0.31341 0.76188 -0.06800
C 	C 	0.26212 0.27553 0.82092 -0.04200
C 	C 	0.21789 0.23987 0.83611 -0.00600
C 	C 	0.14947 0.23597 0.79136 -0.15900
C 	C 	0.12284 0.27174 0.73199 0.24400
F 	F 	0.05694 0.26629 0.68781 -0.42900
C 	C 	0.16516 0.31197 0.71755 0.19700
F 	F 	0.13497 0.34867 0.66034 -0.43200
C 	C 	0.33323 0.38971 0.80144 -0.07100
C 	C 	0.37128 0.43877 0.79055 -0.02300
C 	C 	0.42807 0.47270 0.84583 0.12300
C 	C 	0.50576 0.43953 0.83503 -0.22700
C 	C 	0.43752 0.44957 0.91404 -0.21300
C 	C 	0.40244 0.56571 0.84541 -0.21300
C 	C 	0.35388 0.45883 0.72626 -0.02900
H 	H 	0.24189 0.34342 0.64430 0.04000
H 	H 	0.31765 0.26964 0.85514 0.03200
H 	H 	0.24005 0.20895 0.88113 0.02100
H 	H 	0.33944 0.38010 0.85051 0.04200
H 	H 	0.50311 0.45817 0.78810 0.12800
H 	H 	0.54786 0.46293 0.87414 0.09500
H 	H 	0.52582 0.37272 0.83408 0.09500
H 	H 	0.48050 0.47357 0.95162 0.08000
H 	H 	0.45662 0.38297 0.91728 0.07300
H 	H 	0.38400 0.47559 0.92602 0.07800
H 	H 	0.41349 0.58502 0.80511 0.07500
H 	H 	0.43438 0.59214 0.89098 0.07100
H 	H 	0.34136 0.59117 0.83984 0.07300
H 	H 	0.37723 0.50091 0.71554 0.05000
