data_crystal

_cell_length_a 19.92260
_cell_length_b 17.34030
_cell_length_c 21.34880
_cell_angle_alpha 94.83100
_cell_angle_beta  106.73720
_cell_angle_gamma 68.75640

_symmetry_space_group_name_	'P 1'
_symmetry_space_group_name_H-M	'P 1'

loop_
_symmetry_equiv_pos_as_xyz
  x,y,z

loop_
_atom_site_label
_atom_site_type_symbol
_atom_site_fract_x
_atom_site_fract_y
_atom_site_fract_z
_atom_site_charge
Mn	Mn	0.78835 0.86051 0.01557 1.24000
Mn	Mn	0.79984 1.04384 -0.02459 1.28800
Mn	Mn	0.18647 0.14655 0.90300 1.25400
Mn	Mn	0.18757 -0.01233 0.99006 1.28400
Mn	Mn	-0.00298 0.01307 -0.00416 1.21900
C 	C 	0.73362 0.98537 0.12090 0.11400
N 	N 	0.75920 0.96555 0.06754 -0.23900
N 	N 	0.75499 1.03677 0.04631 -0.18500
N 	N 	0.72304 1.09848 0.08086 -0.01500
N 	N 	0.71049 1.06787 0.12898 -0.03100
N 	N 	0.82612 0.15460 0.07706 -0.09600
N 	N 	0.84839 0.12120 0.02505 -0.21600
N 	N 	0.92018 0.11019 0.03429 -0.18900
N 	N 	0.94322 0.13617 0.09384 -0.08900
C 	C 	0.88652 0.16027 0.12163 0.11700
C 	C 	0.85177 0.97252 0.82191 0.24000
N 	N 	0.84131 1.04951 0.90351 -0.17600
N 	N 	0.80247 1.03204 0.84681 -0.06800
N 	N 	-0.03600 0.93924 0.04158 -0.23900
N 	N 	0.89321 0.94400 0.01763 -0.17700
N 	N 	0.88780 0.87265 0.02620 -0.18300
N 	N 	-0.04610 0.81974 0.05666 -0.11000
N 	N 	0.91339 1.00981 0.91135 -0.15800
N 	N 	0.92192 0.95891 0.86172 -0.05700
C 	C 	0.00150 0.86257 0.07113 0.09800
N 	N 	0.21827 0.02861 0.87418 -0.24900
N 	N 	0.22171 -0.03313 0.90811 -0.18900
N 	N 	0.26696 -0.10347 0.89112 -0.04000
N 	N 	0.29318 -0.08801 0.84487 -0.05900
N 	N 	0.17281 0.83844 0.93383 -0.07800
N 	N 	0.14256 0.90111 0.96804 -0.18300
N 	N 	0.07200 0.91112 0.96187 -0.16700
N 	N 	0.05515 0.85258 0.92274 -0.06000
N 	N 	0.07815 0.06791 0.12622 -0.10700
N 	N 	0.08776 0.01843 0.07643 -0.20000
N 	N 	0.15509 0.00953 0.07117 -0.21400
N 	N 	0.18793 0.05165 0.11608 -0.08500
N 	N 	1.02293 0.09058 0.94697 -0.20000
N 	N 	0.09110 0.07481 0.94155 -0.21100
N 	N 	0.09137 0.13382 0.90662 -0.21000
N 	N 	1.02369 0.18979 0.88691 -0.05400
Cl	Cl	0.74864 0.94756 -0.07360 -0.70200
Cl	Cl	0.23484 0.09204 1.00714 -0.66900
C 	C 	0.26200 -0.00525 0.83476 0.22700
C 	C 	0.11880 0.80841 0.90541 0.13000
C 	C 	0.13865 0.09044 0.14957 0.10200
C 	C 	0.98097 0.16216 0.91144 0.12200
Mn	Mn	0.40994 0.26700 0.60816 1.24300
Mn	Mn	0.34975 0.43343 0.50259 1.29100
Mn	Mn	0.62039 0.69261 0.36864 1.27300
Mn	Mn	0.66650 0.53389 0.47661 1.29400
Mn	Mn	0.50331 0.49470 0.49221 1.27800
C 	C 	0.32799 0.41458 0.68217 0.12600
N 	N 	0.34473 0.38199 0.62696 -0.23800
N 	N 	0.31790 0.44510 0.58548 -0.17900
N 	N 	0.28425 0.51377 0.61317 -0.02900
N 	N 	0.28935 0.49656 0.67402 -0.06200
N 	N 	0.29723 0.60709 0.52919 -0.08600
N 	N 	0.34854 0.55125 0.50607 -0.18500
N 	N 	0.40836 0.57253 0.51707 -0.16700
N 	N 	0.40021 0.63825 0.55554 -0.05100
C 	C 	0.32908 0.66021 0.56115 0.26400
C 	C 	0.39024 0.39372 0.32897 0.25000
N 	N 	0.38815 0.41589 0.42638 -0.19000
N 	N 	0.35844 0.38329 0.37331 -0.08400
N 	N 	0.51141 0.41126 0.55919 -0.22800
N 	N 	0.45572 0.38603 0.55649 -0.18600
N 	N 	0.47951 0.31939 0.59353 -0.18700
N 	N 	0.55115 0.29993 0.62369 -0.09200
N 	N 	0.43763 0.44500 0.41763 -0.17300
N 	N 	0.43919 0.43395 0.35535 -0.05200
C 	C 	0.57124 0.35833 0.60345 0.23600
N 	N 	0.67708 0.57428 0.35155 -0.24100
N 	N 	0.69940 0.51347 0.39397 -0.17800
N 	N 	0.74486 0.44559 0.37398 -0.01600
N 	N 	0.75191 0.46215 0.31693 -0.04500
N 	N 	0.70623 0.35856 0.45635 -0.07500
N 	N 	0.65637 0.42440 0.47246 -0.18600
N 	N 	0.59491 0.41072 0.46913 -0.17700
N 	N 	0.60170 0.33438 0.44804 -0.07100
N 	N 	0.56339 0.57539 0.62231 -0.05000
N 	N 	0.57168 0.54512 0.56425 -0.16900
N 	N 	0.63052 0.55639 0.55523 -0.18900
N 	N 	0.66188 0.59325 0.60468 -0.07400
N 	N 	0.49868 0.57796 0.42492 -0.22600
N 	N 	0.56007 0.59018 0.42314 -0.18600
N 	N 	0.54369 0.65040 0.38133 -0.17600
N 	N 	0.47198 0.67750 0.35080 -0.07700
Cl	Cl	0.35037 0.30171 0.50084 -0.70000
Cl	Cl	0.67716 0.66000 0.47701 -0.68500
C 	C 	0.70784 0.54251 0.30301 0.23600
C 	C 	0.67234 0.30278 0.44157 0.26400
C 	C 	0.62073 0.60483 0.64632 0.12400
C 	C 	0.44422 0.63187 0.37721 0.25100
C 	C 	0.90477 0.21662 0.91030 0.02700
C 	C 	0.89241 0.26167 0.96601 -0.09300
C 	C 	0.82627 0.32903 0.96161 0.16800
Br	Br	0.80563 0.38605 1.03819 -0.10900
C 	C 	0.77583 0.35736 0.90079 -0.13000
C 	C 	0.78677 0.31485 0.84341 0.17100
C 	C 	0.73206 0.34767 0.77814 -0.13500
C 	C 	0.65487 0.39081 0.77210 0.23600
F 	F 	0.62634 0.40412 0.82422 -0.38600
C 	C 	0.60371 0.41424 0.71073 0.26400
F 	F 	0.52971 0.45236 0.70706 -0.38100
C 	C 	0.62581 0.38447 0.65390 -0.18000
C 	C 	0.70236 0.34724 0.65878 0.26800
F 	F 	0.72540 0.31685 0.60492 -0.37800
C 	C 	0.75541 0.33347 0.72021 0.24600
F 	F 	0.82917 0.30342 0.72245 -0.37400
C 	C 	0.85130 0.24229 0.84946 -0.08700
H 	H 	0.93541 0.24711 1.01229 0.10400
H 	H 	0.72945 0.41422 0.89941 0.15600
H 	H 	0.86235 0.20668 0.80706 0.12400
C 	C 	0.90039 0.13832 0.19196 0.05500
C 	C 	0.97083 0.08147 0.22460 -0.09800
C 	C 	0.98210 0.04233 0.28258 0.13800
Br	Br	1.08029 0.97201 0.32763 -0.03300
C 	C 	0.92327 0.05797 0.30959 -0.11700
C 	C 	0.85496 0.12272 0.28484 0.16200
C 	C 	0.80162 0.15220 0.32672 -0.13700
C 	C 	0.72327 0.18603 0.29932 0.24800
F 	F 	0.69265 0.18497 0.23397 -0.39300
C 	C 	0.67575 0.22577 0.33887 0.27100
F 	F 	0.60284 0.27091 0.30994 -0.35600
C 	C 	0.70533 0.22824 0.40686 -0.14900
C 	C 	0.78116 0.18260 0.43528 0.27500
F 	F 	0.81075 0.18226 0.50127 -0.34200
C 	C 	0.82953 0.14965 0.39606 0.25100
F 	F 	0.90417 0.12451 0.42665 -0.36300
C 	C 	0.84262 0.16109 0.22375 -0.08900
H 	H 	1.01755 0.06344 0.20467 0.09500
H 	H 	0.93267 0.02195 0.35228 0.14800
H 	H 	0.78959 0.20869 0.20106 0.12600
C 	C 	0.74392 0.92908 0.17277 0.03000
C 	C 	0.75960 0.95643 0.23739 -0.07000
C 	C 	0.76501 0.90880 0.28906 0.17000
Br	Br	0.78913 0.94541 0.37703 -0.12300
C 	C 	0.75588 0.83267 0.27657 -0.11300
C 	C 	0.73861 0.80545 0.21205 0.17700
C 	C 	0.72111 0.72952 0.20170 -0.15500
C 	C 	0.78039 0.65303 0.21211 0.25000
F 	F 	0.84856 0.64741 0.20755 -0.37600
C 	C 	0.77294 0.58559 0.23719 0.27300
F 	F 	0.83469 0.51687 0.25800 -0.35800
C 	C 	0.70599 0.59494 0.25152 -0.17700
C 	C 	0.64296 0.66753 0.23061 0.21800
F 	F 	0.57707 0.67775 0.24298 -0.46700
C 	C 	0.65053 0.73453 0.20533 0.24200
F 	F 	0.59245 0.80817 0.19452 -0.39200
C 	C 	0.73353 0.85316 0.15996 -0.08400
H 	H 	0.76904 1.01431 0.24800 0.11800
H 	H 	0.76170 0.79461 0.31703 0.09700
H 	H 	0.71848 0.83334 0.11024 0.03000
C 	C 	0.03934 0.85502 0.14244 0.03400
C 	C 	-0.01002 0.87630 0.18254 -0.08900
C 	C 	0.01050 0.83401 0.24154 0.13300
Br	Br	0.94167 0.84662 0.29083 -0.13100
C 	C 	0.08253 0.77890 0.26553 -0.10200
C 	C 	0.13754 0.76728 0.23341 0.17300
C 	C 	0.21715 0.72249 0.27154 -0.12200
C 	C 	0.24043 0.73958 0.33894 0.24600
F 	F 	0.19408 0.79910 0.36818 -0.36500
C 	C 	0.31355 0.70068 0.37668 0.27900
F 	F 	0.33594 0.73045 0.43681 -0.38500
C 	C 	0.36562 0.64146 0.34953 -0.18500
C 	C 	0.34319 0.62186 0.28316 0.29100
F 	F 	0.39450 0.56843 0.25474 -0.36900
C 	C 	0.26985 0.66239 0.24411 0.27000
F 	F 	0.25067 0.64125 0.18049 -0.37800
C 	C 	0.11457 0.80168 0.16900 -0.08400
H 	H 	-0.06802 0.91620 0.16374 0.05300
H 	H 	0.09613 0.74679 0.31137 0.14500
H 	H 	0.15355 0.78540 0.13950 0.10400
C 	C 	0.13084 0.17634 0.17218 0.05000
C 	C 	0.06076 0.23063 0.17666 -0.10600
C 	C 	0.04186 0.31551 0.16976 0.15600
Br	Br	-0.05377 0.38895 0.17594 -0.16600
C 	C 	0.09375 0.34724 0.16120 -0.12700
C 	C 	0.17025 0.29669 0.17256 0.15900
C 	C 	0.23091 0.33527 0.18918 -0.13000
C 	C 	0.30686 0.28897 0.19082 0.24500
F 	F 	0.32616 0.21548 0.16059 -0.39200
C 	C 	0.36517 0.31621 0.22731 0.27200
F 	F 	0.43742 0.26443 0.23737 -0.34900
C 	C 	0.34901 0.39183 0.25965 -0.12400
C 	C 	0.27416 0.44543 0.24494 0.27900
F 	F 	0.25600 0.51732 0.27743 -0.39000
C 	C 	0.21624 0.41658 0.21420 0.24200
F 	F 	0.14759 0.46578 0.21937 -0.38800
C 	C 	0.18712 0.20957 0.17537 -0.09800
H 	H 	0.01891 0.20727 0.18101 0.07600
H 	H 	0.07322 0.41217 0.14826 0.14100
H 	H 	0.24298 0.16631 0.17966 0.13000
C 	C 	0.63940 0.64780 0.70790 0.07700
C 	C 	0.63746 0.62134 0.76722 -0.08600
C 	C 	0.66964 0.65295 0.82621 0.17500
Br	Br	0.67287 0.61252 0.90792 -0.14400
C 	C 	0.70358 0.71100 0.82604 -0.10900
C 	C 	0.70761 0.73664 0.76717 0.18800
C 	C 	0.74980 0.79217 0.76772 -0.13900
C 	C 	0.71251 0.87217 0.73959 0.26600
F 	F 	0.63838 0.89758 0.70701 -0.37100
C 	C 	0.75003 0.92864 0.74896 0.27300
F 	F 	0.71013 1.00807 0.72711 -0.36400
C 	C 	0.82577 0.90616 0.78642 -0.12600
C 	C 	0.86509 0.82287 0.80739 0.26900
F 	F 	0.93844 0.79748 0.84121 -0.38400
C 	C 	0.82713 0.76692 0.79945 0.25200
F 	F 	0.86524 0.68890 0.82510 -0.38000
C 	C 	0.67448 0.70579 0.70845 -0.08400
H 	H 	0.61502 0.57328 0.76786 0.12900
H 	H 	0.72808 0.73509 0.87185 0.09900
H 	H 	0.67952 0.72394 0.66320 0.11800
C 	C 	0.12445 0.75500 0.84758 0.07600
C 	C 	0.09183 0.69415 0.83356 -0.08400
C 	C 	0.09969 0.64398 0.77922 0.17700
Br	Br	0.05555 0.56050 0.76075 -0.16300
C 	C 	0.14087 0.65362 0.73901 -0.12300
C 	C 	0.17523 0.71327 0.75256 0.19100
C 	C 	0.21819 0.72316 0.70863 -0.14100
C 	C 	0.29722 0.69143 0.72707 0.26200
F 	F 	0.33564 0.65995 0.78859 -0.37000
C 	C 	0.33686 0.68382 0.68029 0.26800
F 	F 	0.41219 0.64333 0.69773 -0.36000
C 	C 	0.29798 0.70757 0.61429 -0.13000
C 	C 	0.21946 0.74823 0.59840 0.26900
F 	F 	0.17985 0.77172 0.53546 -0.34800
C 	C 	0.17999 0.75523 0.64472 0.26100
F 	F 	0.10382 0.78733 0.62574 -0.36800
C 	C 	0.16716 0.76319 0.80720 -0.08800
H 	H 	0.06289 0.68353 0.86598 0.13000
H 	H 	0.14722 0.61341 0.69790 0.12200
H 	H 	0.19377 0.80891 0.81785 0.11900
C 	C 	0.34971 0.36843 0.74317 0.02400
C 	C 	0.36545 0.40615 0.80374 -0.07600
C 	C 	0.38213 0.36223 0.86165 0.16400
Br	Br	0.40319 0.41331 0.94420 -0.11800
C 	C 	0.37939 0.28247 0.85885 -0.12600
C 	C 	0.36146 0.24594 0.79803 0.17600
C 	C 	0.34044 0.17261 0.79362 -0.16900
C 	C 	0.39205 0.09744 0.82401 0.24300
F 	F 	0.46461 0.08902 0.85317 -0.39000
C 	C 	0.36774 0.03249 0.82822 0.26000
F 	F 	0.41748 -0.03806 0.86152 -0.38200
C 	C 	0.29100 0.04459 0.80568 -0.19200
C 	C 	0.24020 0.11811 0.77191 0.21100
F 	F 	0.16556 0.13168 0.75131 -0.42900
C 	C 	0.26514 0.18116 0.76474 0.23400
F 	F 	0.21440 0.25371 0.73534 -0.40200
C 	C 	0.34906 0.28807 0.74055 -0.10200
H 	H 	0.36392 0.46959 0.80581 0.12700
H 	H 	0.38697 0.25108 0.90358 0.11900
H 	H 	0.33264 0.26089 0.69352 0.02800
