data_crystal

_cell_length_a 17.39540
_cell_length_b 20.45700
_cell_length_c 18.99480
_cell_angle_alpha 95.42780
_cell_angle_beta  110.90050
_cell_angle_gamma 71.88150

_symmetry_space_group_name_	'P 1'
_symmetry_space_group_name_H-M	'P 1'

loop_
_symmetry_equiv_pos_as_xyz
  x,y,z

loop_
_atom_site_label
_atom_site_type_symbol
_atom_site_fract_x
_atom_site_fract_y
_atom_site_fract_z
_atom_site_charge
Mn	Mn	1.04498 0.87550 0.26601 1.23000
Mn	Mn	0.90859 0.96591 0.10576 1.27400
Mn	Mn	0.00702 0.14089 0.72206 1.21000
Mn	Mn	0.13303 0.04540 0.88103 1.28300
Mn	Mn	0.01543 0.00581 -0.01068 1.21700
C 	C 	0.91074 0.97870 0.31480 0.09300
N 	N 	0.95553 0.96406 0.26799 -0.25200
N 	N 	0.90649 1.00254 0.20726 -0.18900
N 	N 	0.83518 1.04226 0.21727 -0.05300
N 	N 	0.83606 1.02877 0.28442 -0.08200
N 	N 	0.84943 0.11427 0.10053 -0.10400
N 	N 	0.88799 0.06017 0.06932 -0.22600
N 	N 	0.93695 0.07651 0.03850 -0.20100
N 	N 	0.93207 0.14271 0.04990 -0.09400
C 	C 	0.87604 0.16551 0.08806 0.10000
C 	C 	0.83033 0.90328 0.89593 0.12000
N 	N 	0.90621 0.92659 1.00450 -0.16700
N 	N 	0.84832 0.89478 0.96984 -0.07700
N 	N 	0.07375 0.94577 0.09007 -0.23500
N 	N 	1.03399 0.95433 0.13941 -0.18800
N 	N 	1.08667 0.92236 0.20371 -0.19100
N 	N 	0.16209 0.89108 0.19763 -0.12700
N 	N 	0.92666 0.95228 0.95495 -0.16600
N 	N 	0.87819 0.94091 0.88565 -0.08200
C 	C 	0.15128 0.89717 0.12432 0.09700
N 	N 	0.09023 0.04821 0.71870 -0.25900
N 	N 	0.13536 0.00870 0.77912 -0.19800
N 	N 	0.20322 -0.03671 0.76846 -0.06200
N 	N 	0.20365 -0.02613 0.70080 -0.08000
N 	N 	0.20127 0.89862 0.89658 -0.09200
N 	N 	0.14756 0.95326 0.91367 -0.19600
N 	N 	0.09590 0.93627 0.94049 -0.17100
N 	N 	0.11524 0.86866 0.94097 -0.07800
N 	N 	0.13710 0.08040 0.09684 -0.10400
N 	N 	0.10394 0.05975 0.02697 -0.21300
N 	N 	0.13465 0.08154 -0.01776 -0.22500
N 	N 	0.18744 0.11670 0.01990 -0.10800
N 	N 	0.95756 0.06397 0.88726 -0.19100
N 	N 	0.00534 0.06455 0.84599 -0.21300
N 	N 	-0.04180 0.09756 0.78134 -0.22800
N 	N 	0.87758 0.12024 0.77674 -0.10700
Cl	Cl	0.94498 0.85895 0.15457 -0.75100
Cl	Cl	0.10667 0.15173 0.83579 -0.73800
C 	C 	0.13339 0.02776 0.67051 0.08100
C 	C 	0.18042 0.84610 0.91333 0.11600
C 	C 	0.18790 0.11669 0.09054 0.10000
C 	C 	0.87585 0.10175 0.84255 0.10900
Mn	Mn	0.28886 0.32643 0.50953 1.22000
Mn	Mn	0.26458 0.48946 0.45279 1.27600
Mn	Mn	0.61401 0.74062 0.48969 1.24000
Mn	Mn	0.67101 0.56818 0.53284 1.27500
Mn	Mn	0.47569 0.52000 0.50409 1.26300
C 	C 	0.18027 0.42175 0.59790 0.10000
N 	N 	0.22298 0.41211 0.54938 -0.25300
N 	N 	0.21071 0.47420 0.52579 -0.19700
N 	N 	0.15846 0.52046 0.55481 -0.05300
N 	N 	0.13905 0.48916 0.60121 -0.08400
N 	N 	0.24892 0.60115 0.55159 -0.10100
N 	N 	0.29059 0.57375 0.50484 -0.20900
N 	N 	0.36874 0.58157 0.53058 -0.18900
N 	N 	0.37826 0.61001 0.59740 -0.09700
C 	C 	0.30543 0.62046 0.61170 0.11400
C 	C 	0.34875 0.46440 0.28546 0.10400
N 	N 	0.31418 0.50240 0.38003 -0.21100
N 	N 	0.28246 0.48296 0.31039 -0.09400
N 	N 	0.45721 0.44073 0.55097 -0.22700
N 	N 	0.38248 0.42694 0.51855 -0.19400
N 	N 	0.38889 0.36593 0.54116 -0.21200
N 	N 	0.46431 0.34033 0.59365 -0.11700
N 	N 	0.39622 0.49759 0.39849 -0.19000
N 	N 	0.42084 0.47123 0.34054 -0.08900
C 	C 	0.50696 0.38754 0.60254 0.09200
N 	N 	0.66624 0.66584 0.42900 -0.24100
N 	N 	0.69327 0.59948 0.44525 -0.18600
N 	N 	0.75451 0.56890 0.41659 -0.05100
N 	N 	0.76656 0.61580 0.38049 -0.07900
N 	N 	0.68111 0.44762 0.43174 -0.10200
N 	N 	0.64305 0.48319 0.47851 -0.20800
N 	N 	0.58041 0.45958 0.47886 -0.19700
N 	N 	0.57716 0.40688 0.43284 -0.09800
N 	N 	0.53367 0.58672 0.65482 -0.09800
N 	N 	0.56291 0.54315 0.60789 -0.18500
N 	N 	0.64195 0.54649 0.61926 -0.19700
N 	N 	0.66372 0.58809 0.67581 -0.08700
N 	N 	0.48603 0.60012 0.45478 -0.23600
N 	N 	0.54771 0.62737 0.49174 -0.19800
N 	N 	0.52611 0.69105 0.46859 -0.20500
N 	N 	0.45471 0.70427 0.40929 -0.10900
Cl	Cl	0.24115 0.38926 0.40075 -0.75300
Cl	Cl	0.69989 0.66670 0.58695 -0.74100
C 	C 	0.71004 0.67598 0.38879 0.09700
C 	C 	0.63941 0.40018 0.40340 0.10000
C 	C 	0.59293 0.61828 0.69312 0.10000
C 	C 	0.43142 0.64575 0.39767 0.09400
C 	C 	0.80284 0.14615 0.86526 0.01000
C 	C 	0.76538 0.12355 0.90843 -0.07800
C 	C 	0.69156 0.16791 0.92096 0.13700
Br	Br	0.64362 0.13852 0.98415 -0.24400
C 	C 	0.65202 0.23366 0.88679 -0.09300
C 	C 	0.68626 0.25610 0.84015 0.02700
C 	C 	0.64350 0.32413 0.79988 0.03700
C 	C 	0.61847 0.32944 0.72076 -0.06800
C 	C 	0.56574 0.39223 0.68130 0.00800
C 	C 	0.54421 0.45062 0.72412 -0.10500
C 	C 	0.57524 0.44692 0.80378 0.16000
O 	O 	0.54933 0.50194 0.84861 -0.19300
C 	C 	0.54714 0.56798 0.82871 -0.03000
C 	C 	0.62238 0.38344 0.84037 -0.11200
C 	C 	0.76213 0.21301 0.83181 -0.05000
H 	H 	0.79286 0.07192 0.93156 0.05600
H 	H 	0.59406 0.26632 0.89587 0.07900
H 	H 	0.63046 0.28276 0.68910 0.04100
H 	H 	0.49406 0.49565 0.69595 0.06600
H 	H 	0.49359 0.58727 0.77531 0.05100
H 	H 	0.61020 0.56603 0.82523 0.05800
H 	H 	0.53562 0.60457 0.87342 0.05900
H 	H 	0.64019 0.38028 0.90104 0.08800
H 	H 	0.78918 0.23236 0.79805 0.04400
C 	C 	0.85703 0.23246 0.12596 0.02000
C 	C 	0.90871 0.27599 0.13960 -0.09200
C 	C 	0.89688 0.33274 0.18643 0.13500
Br	Br	0.97243 0.38858 0.21001 -0.23200
C 	C 	0.83108 0.34807 0.21735 -0.09800
C 	C 	0.77613 0.30663 0.20234 0.03000
C 	C 	0.70412 0.32143 0.23352 0.03800
C 	C 	0.70783 0.35415 0.30352 -0.06400
C 	C 	0.64239 0.36093 0.33384 0.03000
C 	C 	0.57510 0.33292 0.29478 -0.10400
C 	C 	0.56960 0.30125 0.22563 0.16000
O 	O 	0.50176 0.27223 0.19184 -0.20500
C 	C 	0.51237 0.21823 0.13940 -0.02300
C 	C 	0.63162 0.29896 0.19356 -0.11600
C 	C 	0.79174 0.24813 0.15785 -0.06500
H 	H 	0.96017 0.26436 0.11667 0.08000
H 	H 	0.82319 0.39241 0.25260 0.07600
H 	H 	0.76177 0.37314 0.33490 0.05700
H 	H 	0.52598 0.33541 0.31816 0.07400
H 	H 	0.57817 0.18121 0.15953 0.03900
H 	H 	0.49933 0.23972 0.08330 0.04100
H 	H 	0.46627 0.18918 0.13429 0.04200
H 	H 	0.62332 0.27918 0.13729 0.06400
H 	H 	0.75512 0.21235 0.15035 0.05600
C 	C 	0.92307 0.92884 0.37112 -0.02000
C 	C 	1.00576 0.89176 0.41743 -0.12400
C 	C 	1.01630 0.83641 0.46166 0.12600
Br	Br	1.12911 0.78610 0.52497 -0.22700
C 	C 	0.94462 0.81656 0.45765 -0.10000
C 	C 	0.86189 0.85305 0.41038 0.02600
C 	C 	0.78482 0.83247 0.40140 0.03300
C 	C 	0.78485 0.76347 0.39021 -0.06400
C 	C 	0.70913 0.74662 0.37840 -0.00800
C 	C 	0.63296 0.79928 0.37493 -0.16300
C 	C 	0.63354 0.86764 0.39028 0.14100
O 	O 	0.56256 0.92111 0.39711 -0.20200
C 	C 	0.49124 0.90359 0.40192 -0.00700
C 	C 	0.70938 0.88354 0.40234 -0.11500
C 	C 	0.85180 0.90992 0.36879 -0.05500
H 	H 	1.06186 0.90477 0.41799 0.02300
H 	H 	0.95329 0.77301 0.49097 0.07600
H 	H 	0.84368 0.72332 0.39297 0.05700
H 	H 	0.57484 0.78548 0.36508 -0.00400
H 	H 	0.51255 0.86820 0.45076 -0.04400
H 	H 	0.45886 0.88042 0.34872 0.02900
H 	H 	0.44348 0.95133 0.41045 0.04900
H 	H 	0.70984 0.93627 0.41430 0.07900
H 	H 	0.78848 0.93677 0.33018 0.05700
C 	C 	0.17281 0.82593 0.09492 -0.01300
C 	C 	0.10645 0.79943 0.04757 -0.08000
C 	C 	0.12208 0.72938 0.03218 0.08100
Br	Br	0.03381 0.69677 0.95979 -0.18100
C 	C 	0.19986 0.68283 0.07326 -0.09200
C 	C 	0.26272 0.70653 0.12869 0.01600
C 	C 	0.33353 0.65782 0.18575 0.03500
C 	C 	0.34202 0.66720 0.26212 -0.06300
C 	C 	0.41063 0.62389 0.31821 0.01200
C 	C 	0.47318 0.57244 0.29651 -0.09400
C 	C 	0.46401 0.55992 0.22055 0.15400
O 	O 	0.52658 0.50392 0.20416 -0.19600
C 	C 	0.54437 0.50834 0.13725 -0.02500
C 	C 	0.39266 0.60284 0.16482 -0.11100
C 	C 	0.25120 0.77775 0.13631 -0.06500
H 	H 	0.04257 0.83318 0.02086 0.04500
H 	H 	0.20833 0.62839 0.06540 0.05600
H 	H 	0.29645 0.70991 0.27811 0.03100
H 	H 	0.53085 0.54251 0.33883 0.07000
H 	H 	0.48731 0.51135 0.08624 0.02900
H 	H 	0.59550 0.46131 0.13296 0.04500
H 	H 	0.56873 0.55278 0.13997 0.05100
H 	H 	0.38225 0.59463 0.10547 0.05700
H 	H 	0.30018 0.79571 0.17956 0.04500
C 	C 	0.24679 0.14564 0.15181 0.00500
C 	C 	0.31682 0.10204 0.20678 -0.07900
C 	C 	0.38418 0.12665 0.25372 0.07700
Br	Br	0.48408 0.06603 1.32198 -0.16800
C 	C 	0.38223 0.19444 0.24635 -0.08600
C 	C 	0.31401 0.23808 0.19037 0.02300
C 	C 	0.31854 0.30674 0.17694 0.05100
C 	C 	0.34422 0.34965 0.23710 -0.06200
C 	C 	0.34778 0.41494 0.22416 0.03400
C 	C 	0.32929 0.43626 0.15034 -0.10400
C 	C 	0.30709 0.39200 0.08946 0.16100
O 	O 	0.28861 0.40811 0.01366 -0.19900
C 	C 	0.30371 0.46842 -0.00264 -0.02000
C 	C 	0.29985 0.32870 0.10347 -0.10900
C 	C 	0.24624 0.21338 0.14344 -0.05700
H 	H 	0.32216 0.04802 0.20938 0.05000
H 	H 	0.43654 0.21185 0.28118 0.06300
H 	H 	0.35744 0.33380 0.29404 0.06200
H 	H 	0.32820 0.48789 0.14057 0.06500
H 	H 	0.37037 0.46892 0.03139 0.03100
H 	H 	0.25504 0.51520 0.00668 0.03300
H 	H 	0.29648 0.46713 -0.06290 0.03300
H 	H 	0.28071 0.29609 0.05607 0.07500
H 	H 	0.19483 0.24602 0.09849 0.05300
C 	C 	0.56302 0.69522 0.69720 0.03100
C 	C 	0.48360 0.72980 0.64244 -0.10700
C 	C 	0.45451 0.80085 0.63541 0.13500
Br	Br	0.34613 0.84528 0.56104 -0.27000
C 	C 	0.50408 0.83966 0.68233 -0.11300
C 	C 	0.58330 0.80839 0.73865 0.03200
C 	C 	0.62479 0.85605 0.79212 0.04600
C 	C 	0.71191 0.85439 0.81018 -0.06400
C 	C 	0.73988 0.91042 0.84842 0.02600
C 	C 	0.67988 0.96705 0.86628 -0.08000
C 	C 	0.59778 0.96512 0.85661 0.19000
O 	O 	0.54502 0.01672 0.88711 -0.21400
C 	C 	0.54580 -0.00390 0.95719 -0.02300
C 	C 	0.57050 0.91002 0.81992 -0.12400
C 	C 	0.61417 0.73532 0.74491 -0.06100
H 	H 	0.44491 0.70194 0.60157 0.08300
H 	H 	0.47962 0.89520 0.67543 0.07700
H 	H 	0.75706 0.81045 0.79545 0.06800
H 	H 	0.70049 0.00889 0.89779 0.05300
H 	H 	0.61245 -0.01717 0.99938 0.04900
H 	H 	0.52063 -0.04884 0.94987 0.03800
H 	H 	0.50426 0.03929 0.97934 0.06300
H 	H 	0.50558 0.91009 0.81172 0.08700
H 	H 	0.67583 0.71030 0.78658 0.07000
C 	C 	0.24253 0.77774 0.92672 0.03400
C 	C 	0.31390 0.76618 0.99357 -0.08200
C 	C 	0.38265 0.70625 1.00427 0.14200
Br	Br	0.48172 0.69605 1.09358 -0.20200
C 	C 	0.38157 0.65774 0.94720 -0.09600
C 	C 	0.31296 0.67119 0.87776 0.03600
C 	C 	0.31626 0.62346 0.81526 0.04400
C 	C 	0.30841 0.64661 0.74496 -0.07000
C 	C 	0.31253 0.59975 0.68679 0.03000
C 	C 	0.32629 0.52949 0.69993 -0.10300
C 	C 	0.33326 0.50628 0.76995 0.16500
O 	O 	0.33813 0.43861 0.78462 -0.19300
C 	C 	0.38401 0.38317 0.74978 -0.01900
C 	C 	0.32792 0.55400 0.82667 -0.10900
C 	C 	0.24328 0.73131 0.86780 -0.05800
H 	H 	0.31827 0.80554 1.03601 0.09200
H 	H 	0.43610 0.61147 0.95577 0.08100
H 	H 	0.30101 0.70014 0.73623 0.06600
H 	H 	0.33065 0.49384 0.65477 0.06300
H 	H 	0.45264 0.38061 0.76921 0.04600
H 	H 	0.35564 0.38679 0.68780 0.01600
H 	H 	0.38023 0.33441 0.76726 0.04400
H 	H 	0.33349 0.53691 0.88067 0.08600
H 	H 	0.19160 0.74283 0.81383 0.06200
C 	C 	0.17936 0.36770 0.64270 -0.02700
C 	C 	0.17358 0.38220 0.71459 -0.07600
C 	C 	0.17062 0.33145 0.75664 0.12800
Br	Br	0.16697 0.35009 0.85581 -0.20200
C 	C 	0.16755 0.26758 0.72510 -0.10700
C 	C 	0.17040 0.25274 0.65191 0.00700
C 	C 	0.15095 0.19010 0.61292 0.02200
C 	C 	0.16888 0.13051 0.65398 -0.10500
C 	C 	0.13261 0.07808 0.62047 -0.01600
C 	C 	0.08227 0.08266 0.54404 -0.13200
C 	C 	0.06874 0.14018 0.50043 0.14300
O 	O 	0.01806 0.15036 0.42361 -0.24100
C 	C 	0.97674 0.10009 0.38802 0.01600
C 	C 	0.10241 0.19326 0.53552 -0.13500
C 	C 	0.18133 0.30231 0.61293 -0.06100
H 	H 	0.17247 0.43256 0.73818 0.08400
H 	H 	0.15925 0.23120 0.75695 0.07100
H 	H 	0.20664 0.12634 0.71360 0.05200
H 	H 	0.05207 0.04276 0.52055 0.04100
H 	H 	0.93048 0.09706 0.41476 0.02900
H 	H 	0.02550 1.04931 0.39035 0.02600
H 	H 	0.94007 0.11564 0.32805 0.04600
H 	H 	0.08541 0.23892 0.50206 0.05700
H 	H 	0.18668 0.29165 0.55761 -0.04900
