data_crystal

_cell_length_a 16.69080
_cell_length_b 18.59030
_cell_length_c 21.32590
_cell_angle_alpha 96.31740
_cell_angle_beta  108.89120
_cell_angle_gamma 69.45650

_symmetry_space_group_name_	'P 1'
_symmetry_space_group_name_H-M	'P 1'

loop_
_symmetry_equiv_pos_as_xyz
  x,y,z

loop_
_atom_site_label
_atom_site_type_symbol
_atom_site_fract_x
_atom_site_fract_y
_atom_site_fract_z
_atom_site_charge
Mn	Mn	0.90340 0.73220 -0.01558 1.24000
Mn	Mn	0.82464 0.92940 -0.00099 1.28000
Mn	Mn	0.07650 0.28754 0.98497 1.22800
Mn	Mn	0.16243 0.09065 0.99855 1.27800
Mn	Mn	-0.00319 0.00767 0.00256 1.22400
C 	C 	0.84036 0.75541 0.10677 0.12200
N 	N 	0.86141 0.78436 0.06189 -0.24500
N 	N 	0.83451 0.85963 0.07013 -0.18600
N 	N 	0.79838 0.87749 0.11898 -0.04700
N 	N 	0.80163 0.81320 0.14330 -0.08600
N 	N 	0.80503 0.04932 0.09939 -0.11600
N 	N 	0.85617 0.01016 0.06283 -0.22000
N 	N 	0.90784 0.04770 0.05709 -0.19300
N 	N 	0.89213 0.11306 0.09071 -0.09100
C 	C 	0.82890 0.11232 0.11756 0.11600
C 	C 	0.82053 0.96386 0.82819 0.11700
N 	N 	0.81851 0.99241 0.92631 -0.17600
N 	N 	0.76786 0.98030 0.86735 -0.07000
N 	N 	0.02100 0.89842 0.03150 -0.24400
N 	N 	0.95429 0.87086 0.00904 -0.18700
N 	N 	0.98485 0.79555 0.00603 -0.19300
N 	N 	0.07308 0.77046 0.03025 -0.13400
N 	N 	0.89548 0.99278 0.92206 -0.16700
N 	N 	0.90197 0.96879 0.86242 -0.06900
C 	C 	0.09618 0.83478 0.04626 0.11100
N 	N 	0.11864 0.22028 0.91310 -0.24900
N 	N 	0.14959 0.14485 0.91733 -0.20100
N 	N 	0.17718 0.11466 0.86577 -0.06100
N 	N 	0.16563 0.17112 0.82716 -0.08000
N 	N 	0.18325 0.96278 0.90248 -0.08800
N 	N 	0.13861 1.00114 0.94382 -0.18800
N 	N 	0.08437 0.96677 0.94970 -0.18400
N 	N 	0.09116 0.90515 0.91219 -0.09300
N 	N 	0.10595 0.02464 0.14786 -0.10700
N 	N 	0.10022 0.02260 0.08388 -0.20600
N 	N 	0.16713 0.04116 0.07769 -0.21800
N 	N 	0.21835 0.05410 0.13559 -0.09500
N 	N 	0.97067 0.11656 0.96899 -0.20400
N 	N 	0.03309 0.14872 0.99060 -0.21100
N 	N 	-0.00159 0.22273 0.97715 -0.21900
N 	N 	0.91491 0.23875 0.93818 -0.08400
Cl	Cl	0.79438 0.83535 -0.07306 -0.76500
Cl	Cl	0.18662 0.19519 1.05656 -0.73100
C 	C 	0.12889 0.23657 0.85720 0.07300
C 	C 	0.15202 0.90369 0.88261 0.13900
C 	C 	0.18087 0.04403 0.17908 0.10800
C 	C 	0.89922 0.17087 0.92809 0.12000
Mn	Mn	0.26245 0.37137 0.56435 1.21800
Mn	Mn	0.26205 0.50947 0.46842 1.27300
Mn	Mn	0.71164 0.63133 0.39490 1.22400
Mn	Mn	0.71626 0.50281 0.50119 1.27600
Mn	Mn	0.49087 0.50507 0.49037 1.26500
C 	C 	0.19088 0.52117 0.63299 0.10900
N 	N 	0.20872 0.48442 0.57920 -0.26200
N 	N 	0.20096 0.53799 0.53993 -0.19600
N 	N 	0.17289 0.60638 0.56618 -0.05200
N 	N 	0.16638 0.59776 0.62496 -0.08100
N 	N 	0.25289 0.66548 0.50875 -0.09600
N 	N 	0.30078 0.60214 0.48536 -0.21100
N 	N 	0.38485 0.60031 0.50046 -0.19300
N 	N 	0.39338 0.66128 0.53693 -0.08700
C 	C 	0.31031 0.70239 0.54067 0.08800
C 	C 	0.37223 0.37640 0.34482 0.09000
N 	N 	0.32188 0.47581 0.39835 -0.20400
N 	N 	0.29744 0.42350 0.35708 -0.08300
N 	N 	0.46166 0.44453 0.55080 -0.22400
N 	N 	0.37722 0.44623 0.53726 -0.19100
N 	N 	0.37434 0.39398 0.57273 -0.21000
N 	N 	0.45451 0.35745 0.61193 -0.10100
N 	N 	0.40815 0.46470 0.40929 -0.18900
N 	N 	0.44089 0.40282 0.37582 -0.08800
C 	C 	0.50954 0.38822 0.59907 0.09600
N 	N 	0.76665 0.51742 0.38477 -0.24900
N 	N 	0.77305 0.46755 0.42708 -0.19300
N 	N 	0.79466 0.39758 0.40218 -0.04300
N 	N 	0.79943 0.40116 0.34191 -0.07100
N 	N 	0.72987 0.34284 0.47584 -0.09000
N 	N 	0.67961 0.41009 0.49142 -0.21000
N 	N 	0.59815 0.40985 0.48346 -0.19100
N 	N 	0.59420 0.34107 0.46183 -0.08900
N 	N 	0.55256 0.58992 0.61778 -0.08900
N 	N 	0.57613 0.54421 0.56975 -0.18900
N 	N 	0.65742 0.54154 0.57187 -0.20200
N 	N 	0.68838 0.58436 0.62017 -0.09400
N 	N 	0.51743 0.56600 0.42787 -0.22500
N 	N 	0.60084 0.56140 0.43402 -0.19600
N 	N 	0.60107 0.60938 0.39303 -0.20800
N 	N 	0.51896 0.64624 0.35704 -0.10200
Cl	Cl	0.22094 0.40265 0.45606 -0.76800
Cl	Cl	0.75552 0.60908 0.50602 -0.75300
C 	C 	0.78113 0.47621 0.33140 0.08100
C 	C 	0.67608 0.30025 0.45571 0.08600
C 	C 	0.62280 0.61503 0.64830 0.12300
C 	C 	0.46672 0.61941 0.37807 0.09600
C 	C 	0.86295 0.15523 0.85635 -0.03200
C 	C 	0.92015 0.09887 0.82576 -0.00700
C 	C 	0.90332 0.09645 0.75701 -0.02900
C 	C 	-0.03660 0.03508 0.72644 0.23200
O 	O 	-0.00916 -0.03068 0.74645 -0.25700
O 	O 	-0.01034 0.05035 0.67489 -0.30700
C 	C 	0.83214 0.15503 0.71807 -0.01300
C 	C 	0.77742 0.21468 0.74710 -0.03200
C 	C 	0.71894 0.28332 0.70653 0.14600
C 	C 	0.75124 0.32850 0.68154 -0.08300
C 	C 	0.67807 0.37601 0.63688 -0.04300
C 	C 	0.60598 0.35649 0.63738 0.09000
O 	O 	0.63169 0.29942 0.67977 -0.22200
C 	C 	0.79032 0.21332 0.81565 -0.01400
H 	H 	0.98185 0.05926 0.85551 0.04700
H 	H 	-0.02875 0.10710 0.66569 0.12600
H 	H 	0.82120 0.15620 0.66518 0.04400
H 	H 	0.82084 0.32451 0.69265 0.05500
H 	H 	0.68113 0.41681 0.60780 0.02800
H 	H 	0.75092 0.26185 0.83833 0.05200
C 	C 	0.77663 0.17781 0.14985 -0.02100
C 	C 	0.72175 0.24600 0.11391 -0.01200
C 	C 	0.65994 0.30400 0.13961 -0.04500
C 	C 	0.59972 0.37442 0.10068 0.19700
O 	O 	0.61299 1.38862 0.05117 -0.18500
O 	O 	0.52760 1.42493 0.12036 -0.25600
C 	C 	0.65555 0.29360 0.20260 -0.00600
C 	C 	0.70873 0.22519 0.23862 -0.02600
C 	C 	0.70217 0.21714 0.30513 0.13900
C 	C 	0.70108 0.15247 0.33093 -0.07500
C 	C 	0.69046 0.17377 0.39233 -0.05800
C 	C 	0.68567 0.24956 0.39882 0.11000
O 	O 	0.69258 0.27558 0.34631 -0.21800
C 	C 	0.76880 0.16722 0.21169 -0.02000
H 	H 	0.72398 0.25192 0.06448 0.04300
H 	H 	0.49358 1.47256 0.09130 0.16700
H 	H 	0.60947 0.33808 0.22365 0.05500
H 	H 	0.70522 0.09732 0.30721 0.04800
H 	H 	0.68663 0.13863 0.42765 0.04500
H 	H 	0.81044 0.11428 0.23910 0.04300
C 	C 	0.84337 0.67471 0.10678 -0.08600
C 	C 	0.87925 0.62129 0.06238 0.04000
C 	C 	0.87300 0.54731 0.05541 -0.09700
C 	C 	0.90791 0.49257 0.00669 0.24700
O 	O 	0.94708 0.50983 -0.02556 -0.30400
O 	O 	0.89560 0.42119 0.99707 -0.27800
C 	C 	0.83160 0.52643 0.09449 0.01800
C 	C 	0.79822 0.57802 0.14049 -0.05800
C 	C 	0.75870 0.55306 0.18240 0.15100
C 	C 	0.69435 0.51823 0.15817 -0.09300
C 	C 	0.69043 0.48940 0.21253 -0.03900
C 	C 	0.75273 0.50838 0.26531 0.06000
O 	O 	0.79430 0.54741 0.24751 -0.25500
C 	C 	0.80513 0.65160 0.14731 0.01600
H 	H 	0.91116 0.63712 0.03227 -0.11600
H 	H 	0.92318 0.38895 0.96293 0.08200
H 	H 	0.82678 0.46940 0.09035 0.04100
H 	H 	0.65883 0.51125 0.10683 0.06200
H 	H 	0.65040 0.45552 0.21403 0.05400
H 	H 	0.77861 0.69116 0.18270 0.03200
C 	C 	0.17464 0.83089 0.10434 -0.03900
C 	C 	0.24002 0.86124 0.10351 0.00100
C 	C 	0.31499 0.85495 0.16009 -0.02700
C 	C 	0.38278 -0.11024 0.16163 0.24700
O 	O 	0.38396 -0.08702 0.11067 -0.27200
O 	O 	0.44541 -0.10354 0.22198 -0.32700
C 	C 	0.32516 0.81486 0.21592 -0.00200
C 	C 	0.26135 0.78213 0.21626 -0.03500
C 	C 	0.27767 0.73551 0.27370 0.13700
C 	C 	0.26259 0.76801 0.33167 -0.08300
C 	C 	0.32194 0.71628 0.38021 -0.04700
C 	C 	0.36923 0.65476 0.34907 0.07800
O 	O 	0.34090 0.66722 0.28417 -0.22400
C 	C 	0.18585 0.79118 0.16090 -0.00900
H 	H 	0.23191 0.88956 0.05898 0.03900
H 	H 	0.48913 -0.07962 0.21725 0.14800
H 	H 	0.38397 0.80747 0.25879 0.05400
H 	H 	0.22563 0.82754 0.33904 0.06700
H 	H 	0.34304 0.73192 0.43141 0.05600
H 	H 	0.13671 0.76579 0.16146 0.02900
C 	C 	0.21106 0.06906 0.24837 -0.01500
C 	C 	0.20560 0.03560 0.30187 -0.04500
C 	C 	0.24724 0.05434 0.36754 -0.10300
C 	C 	0.24393 1.01785 0.42460 0.32400
O 	O 	0.20395 0.97196 0.41535 -0.25300
O 	O 	0.28649 1.03584 0.48931 -0.30800
C 	C 	0.29401 0.10703 0.37853 0.00700
C 	C 	0.29746 0.14236 0.32509 -0.03700
C 	C 	0.35086 0.19398 0.33577 0.13900
C 	C 	0.43958 0.17400 0.37327 -0.08200
C 	C 	0.46180 0.23791 0.37451 -0.05400
C 	C 	0.38541 0.29304 0.33762 0.11000
O 	O 	0.31728 0.26616 0.31424 -0.22000
C 	C 	0.25552 0.12365 0.26076 -0.01800
H 	H 	0.17226 0.99317 0.29252 0.08300
H 	H 	0.27955 1.00706 0.52390 0.16600
H 	H 	0.32774 0.12095 0.42854 0.02700
H 	H 	0.48135 0.12063 0.39960 0.04700
H 	H 	0.52306 0.24546 0.40558 0.05500
H 	H 	0.26146 0.14942 0.22000 0.06000
C 	C 	0.61532 0.68812 0.68494 -0.01900
C 	C 	0.53804 0.72895 0.70308 0.00400
C 	C 	0.52238 0.80579 0.72321 -0.06200
C 	C 	0.43960 0.84982 0.73970 0.28900
O 	O 	0.41208 0.82021 0.77282 -0.22900
O 	O 	0.39279 0.92538 0.71735 -0.29900
C 	C 	0.58530 0.84115 0.72673 0.01600
C 	C 	0.66594 0.79961 0.71271 -0.02800
C 	C 	0.73558 0.83631 0.72465 0.15700
C 	C 	0.82425 0.80042 0.72608 -0.09700
C 	C 	0.86756 0.85151 0.75581 0.02000
C 	C 	0.80246 0.91423 0.77094 0.10800
O 	O 	0.72302 0.90539 0.75070 -0.21000
C 	C 	0.68026 0.72317 0.69191 -0.01600
H 	H 	0.48787 0.70259 0.69825 0.06000
H 	H 	0.33368 0.94799 0.72778 0.16700
H 	H 	0.57221 0.90063 0.74263 0.06800
H 	H 	0.85663 0.74136 0.71471 0.07300
H 	H 	0.93953 -0.16032 0.77335 0.02600
H 	H 	0.74073 0.69170 0.67893 0.05200
C 	C 	0.18667 0.83923 0.84124 -0.01600
C 	C 	0.18959 0.76736 0.85678 0.00900
C 	C 	0.21347 0.70429 0.81721 -0.06800
C 	C 	0.20293 0.63348 0.83111 0.28800
O 	O 	0.16328 0.60066 0.78606 -0.24700
O 	O 	0.23125 0.60775 0.89631 -0.29900
C 	C 	0.23709 0.71199 0.76157 0.01600
C 	C 	0.23473 0.78377 0.74427 -0.02200
C 	C 	0.25410 0.78983 0.68188 0.15400
C 	C 	0.22610 0.85605 0.64552 -0.07300
C 	C 	0.24994 0.83309 0.58889 -0.04900
C 	C 	0.29297 0.75477 0.59551 0.11100
O 	O 	0.29373 0.72852 0.65106 -0.22100
C 	C 	0.20998 0.84782 0.78517 0.00000
H 	H 	0.16862 0.76113 0.89848 0.05100
H 	H 	0.21752 0.55963 0.89968 0.15500
H 	H 	0.25509 0.66223 0.73105 0.06100
H 	H 	0.18817 0.91338 0.65701 0.06900
H 	H 	0.23230 0.86843 0.54614 0.05700
H 	H 	0.20618 0.90396 0.77264 0.05900
C 	C 	0.23024 0.48446 0.69783 -0.07800
C 	C 	0.31416 0.48735 0.73828 0.01000
C 	C 	0.34738 0.46242 0.80441 -0.07000
C 	C 	0.43278 0.47056 0.84848 0.28900
O 	O 	0.49102 0.47004 0.82537 -0.23100
O 	O 	0.44664 0.47983 0.91658 -0.29400
C 	C 	0.29644 0.43282 0.82885 0.01000
C 	C 	0.21395 0.42772 0.78733 -0.04400
C 	C 	0.16249 0.39491 0.81207 0.13600
C 	C 	0.09984 0.43543 0.84349 -0.08600
C 	C 	0.07448 0.38107 0.86243 -0.07300
C 	C 	0.12354 0.31235 0.84057 0.06600
O 	O 	0.17668 0.32063 0.80991 -0.23200
C 	C 	0.18154 0.45251 0.72156 -0.01300
H 	H 	0.35172 0.51209 0.71921 0.04600
H 	H 	0.50772 0.48470 0.94143 0.17900
H 	H 	0.32077 0.41398 0.88002 0.04500
H 	H 	0.07719 0.49656 0.85286 0.04600
H 	H 	0.02772 0.38996 0.89005 -0.03200
H 	H 	0.11719 0.44984 0.68972 0.01100
