data_crystal

_cell_length_a 21.71680
_cell_length_b 24.71440
_cell_length_c 29.33300
_cell_angle_alpha 95.67120
_cell_angle_beta  107.67860
_cell_angle_gamma 69.71250

_symmetry_space_group_name_	'P 1'
_symmetry_space_group_name_H-M	'P 1'

loop_
_symmetry_equiv_pos_as_xyz
  x,y,z

loop_
_atom_site_label
_atom_site_type_symbol
_atom_site_fract_x
_atom_site_fract_y
_atom_site_fract_z
_atom_site_charge
Mn	Mn	0.91928 0.84820 0.09155 1.23700
Mn	Mn	0.86051 0.97442 0.02718 1.28100
Mn	Mn	0.07712 0.16926 0.91580 1.24000
Mn	Mn	0.13601 0.04439 0.98234 1.28100
Mn	Mn	-0.00195 0.01011 0.00531 1.25600
C 	C 	0.84421 0.93815 0.15370 0.12900
N 	N 	0.86973 0.92501 0.11630 -0.24600
N 	N 	0.84849 0.97371 0.09258 -0.18800
N 	N 	0.81156 1.01612 0.11440 -0.03800
N 	N 	0.80789 0.99504 0.15306 -0.07100
N 	N 	0.83467 0.09567 0.05860 -0.10000
N 	N 	0.87391 0.05155 0.03983 -0.20800
N 	N 	0.92446 0.06453 0.03302 -0.19300
N 	N 	0.92011 0.11795 0.04723 -0.08400
C 	C 	0.86399 0.13652 0.06302 0.14500
C 	C 	0.87853 0.94597 0.89272 0.20100
N 	N 	0.87585 0.97205 0.96283 -0.18400
N 	N 	0.84483 0.94787 0.92487 -0.07800
N 	N 	0.01200 0.94623 0.05075 -0.24100
N 	N 	0.96067 0.93257 0.05525 -0.18600
N 	N 	0.98374 0.88555 0.08145 -0.19100
N 	N 	0.05149 0.86750 0.09679 -0.11300
N 	N 	0.92690 0.98319 0.95489 -0.17900
N 	N 	0.93067 0.96690 0.91116 -0.07800
C 	C 	0.06889 0.90574 0.07743 0.13300
N 	N 	0.12655 0.09212 0.89183 -0.24700
N 	N 	0.14807 0.04409 0.91657 -0.18600
N 	N 	0.17988 0.00014 0.89322 -0.03800
N 	N 	0.17962 0.01928 0.85240 -0.06800
N 	N 	0.15909 0.92411 0.94976 -0.08800
N 	N 	0.12278 0.96736 0.97106 -0.19800
N 	N 	0.07164 0.95506 0.97767 -0.18800
N 	N 	0.07315 0.90308 0.96094 -0.08000
N 	N 	0.06712 0.05244 0.09952 -0.10100
N 	N 	0.06907 0.03752 0.05523 -0.20200
N 	N 	0.12062 0.04770 0.04698 -0.20200
N 	N 	0.15453 0.06883 0.08551 -0.08000
N 	N 	0.98419 0.07372 0.95988 -0.21500
N 	N 	0.03583 0.08575 0.95392 -0.20400
N 	N 	0.01319 0.13202 0.92684 -0.21100
N 	N 	0.94557 0.15103 0.91240 -0.08900
Cl	Cl	0.85037 0.88510 0.01769 -0.71400
Cl	Cl	0.14595 0.13358 0.99009 -0.69700
C 	C 	0.14621 0.07671 0.85196 0.18500
C 	C 	0.12839 0.88410 0.94411 0.15400
C 	C 	0.12087 0.07147 0.11790 0.13800
C 	C 	0.92767 0.11466 0.93338 0.14700
Mn	Mn	0.41154 0.31314 0.55789 1.24100
Mn	Mn	0.35854 0.44850 0.50847 1.28900
Mn	Mn	0.60742 0.65751 0.45126 1.24600
Mn	Mn	0.65128 0.52370 0.50026 1.28900
Mn	Mn	0.50268 0.48985 0.50467 1.27900
C 	C 	0.35255 0.39357 0.63254 0.13700
N 	N 	0.36305 0.38502 0.58926 -0.23700
N 	N 	0.34166 0.43683 0.57036 -0.18000
N 	N 	0.31822 0.47638 0.60042 -0.01700
N 	N 	0.32450 0.45048 0.63996 -0.06100
N 	N 	0.33397 0.56273 0.55406 -0.07100
N 	N 	0.37245 0.52434 0.53085 -0.18800
N 	N 	0.42316 0.54096 0.52875 -0.18000
N 	N 	0.41949 0.59043 0.55147 -0.06400
C 	C 	0.36290 0.60413 0.56667 0.20600
C 	C 	0.38107 0.44768 0.37716 0.19400
N 	N 	0.37949 0.45680 0.44883 -0.18900
N 	N 	0.34523 0.44429 0.40630 -0.07200
N 	N 	0.50906 0.42309 0.54447 -0.22500
N 	N 	0.45753 0.40354 0.53622 -0.18700
N 	N 	0.47788 0.35316 0.55707 -0.19400
N 	N 	0.54266 0.33947 0.58256 -0.09900
N 	N 	0.43454 0.46684 0.44689 -0.17900
N 	N 	0.43796 0.46052 0.40217 -0.06300
C 	C 	0.56228 0.38363 0.57530 0.19100
N 	N 	0.65120 0.58375 0.41952 -0.24200
N 	N 	0.66841 0.53236 0.43808 -0.17800
N 	N 	0.69751 0.49187 0.41088 -0.01900
N 	N 	0.69991 0.51685 0.37368 -0.05200
N 	N 	0.67526 0.40660 0.46116 -0.07400
N 	N 	0.63359 0.44979 0.47883 -0.19100
N 	N 	0.58096 0.43632 0.48089 -0.18100
N 	N 	0.58643 0.38353 0.46418 -0.06700
N 	N 	0.55997 0.53233 0.60350 -0.07000
N 	N 	0.57090 0.51384 0.56178 -0.18100
N 	N 	0.62865 0.51981 0.56047 -0.18800
N 	N 	0.65714 0.54167 0.60085 -0.08000
N 	N 	0.49807 0.55707 0.46560 -0.22200
N 	N 	0.55319 0.57170 0.47189 -0.18600
N 	N 	0.53651 0.62309 0.45382 -0.18200
N 	N 	0.47019 0.64330 0.43271 -0.08300
Cl	Cl	0.34715 0.36073 0.48700 -0.70100
Cl	Cl	0.67063 0.60854 0.52121 -0.71000
C 	C 	0.67091 0.57411 0.37952 0.19500
C 	C 	0.64602 0.36521 0.45233 0.20800
C 	C 	0.61466 0.54833 0.62752 0.15900
C 	C 	0.44578 0.60210 0.43962 0.19500
C 	C 	0.85443 0.11994 0.92570 -0.04500
O 	O 	0.81520 0.17805 0.93449 -0.15400
C 	C 	0.78716 0.21457 0.89425 0.07700
C 	C 	0.73573 0.20570 0.85462 0.03900
I 	I 	0.68293 0.14872 0.85734 -0.03900
C 	C 	0.71580 0.23698 0.81255 -0.07300
C 	C 	0.74396 0.27928 0.80962 0.07400
C 	C 	0.72009 0.30938 0.76193 -0.10800
C 	C 	0.74383 0.36046 0.75860 -0.03900
C 	C 	0.70442 0.38774 0.70935 -0.01900
C 	C 	0.63519 0.42307 0.70127 0.09000
Cl	Cl	0.60368 0.45660 0.74969 -0.27400
C 	C 	0.58897 0.42677 0.65540 0.14300
Cl	Cl	0.49998 0.46022 0.64859 -0.29300
C 	C 	0.61231 0.39916 0.61626 -0.11300
C 	C 	0.68293 0.37104 0.62316 0.14300
Cl	Cl	0.71273 0.33680 0.57450 -0.25800
C 	C 	0.72899 0.36517 0.66955 0.09800
Cl	Cl	0.81629 0.32370 0.67789 -0.25100
C 	C 	0.79061 0.29192 0.85067 -0.07800
C 	C 	0.81130 0.26027 0.89304 0.03900
I 	I 	0.87850 0.28285 0.95484 -0.07500
H 	H 	0.83465 0.10605 0.88851 0.07400
H 	H 	0.84978 0.09056 0.94937 0.04700
H 	H 	0.67747 0.22857 0.78185 0.07500
H 	H 	0.66308 0.32497 0.75133 0.08200
H 	H 	0.73620 0.27647 0.73529 0.08300
H 	H 	0.73396 0.39218 0.78727 0.07600
H 	H 	0.80006 0.34504 0.76432 0.07400
H 	H 	0.81123 0.32580 0.85013 0.06700
C 	C 	0.83864 0.19406 0.08471 -0.03200
O 	O 	0.87826 0.19321 0.13378 -0.15000
C 	C 	0.84208 0.20577 0.16823 0.07400
C 	C 	0.86467 0.16703 0.20662 0.04800
I 	I 	0.94698 0.08881 0.20957 -0.05200
C 	C 	0.83428 0.18013 0.24410 -0.07600
C 	C 	0.77921 0.23153 0.24324 0.08000
C 	C 	0.75200 0.25228 0.28611 -0.11200
C 	C 	0.74284 0.20646 0.31331 -0.03500
C 	C 	0.72051 0.23411 0.35719 -0.01600
C 	C 	0.76743 0.25104 0.39571 0.10500
Cl	Cl	0.85634 0.22423 0.40108 -0.24900
C 	C 	0.74396 0.28978 0.43002 0.14800
Cl	Cl	0.80444 0.31069 0.47736 -0.22000
C 	C 	0.67346 0.31071 0.42716 -0.07400
C 	C 	0.62989 0.28354 0.39531 0.15600
Cl	Cl	0.54732 0.29417 0.40032 -0.24600
C 	C 	0.65275 0.24659 0.35948 0.11200
Cl	Cl	0.59557 0.21675 0.31767 -0.24900
C 	C 	0.75715 0.27022 0.20495 -0.07500
C 	C 	0.78889 0.25862 0.16840 0.04000
I 	I 	0.76037 0.32695 0.11951 -0.05100
H 	H 	0.84440 0.22711 0.06480 0.07300
H 	H 	0.78311 0.20430 0.08062 0.06200
H 	H 	0.85521 0.15074 0.27422 0.08000
H 	H 	0.70121 0.28696 0.27445 0.08900
H 	H 	0.78739 0.27282 0.31071 0.09900
H 	H 	0.70508 0.18852 0.28845 0.08100
H 	H 	0.79111 0.16959 0.32515 0.07500
H 	H 	0.71763 0.31158 0.20497 0.08200
C 	C 	0.83855 0.89421 0.18181 -0.04900
O 	O 	0.79703 0.86527 0.14895 -0.19900
C 	C 	0.76591 0.83762 0.16963 0.07700
C 	C 	0.70266 0.86835 0.17829 0.03800
I 	I 	0.65568 0.95826 0.16542 -0.05000
C 	C 	0.66834 0.83915 0.19438 -0.07900
C 	C 	0.69634 0.77923 0.20157 0.07700
C 	C 	0.65941 0.74782 0.21894 -0.10600
C 	C 	0.65971 0.76346 0.27108 -0.03300
C 	C 	0.66123 0.71293 0.29736 -0.02500
C 	C 	0.60075 0.70968 0.30390 0.10000
Cl	Cl	0.52039 0.76286 0.27932 -0.28100
C 	C 	0.60375 0.66345 0.32981 0.11700
Cl	Cl	0.52741 0.65924 0.33670 -0.33200
C 	C 	0.66688 0.61984 0.34895 -0.12400
C 	C 	0.72673 0.62156 0.34068 0.14700
Cl	Cl	0.80640 0.56684 0.36396 -0.23800
C 	C 	0.72408 0.66802 0.31532 0.09800
Cl	Cl	0.80073 0.67001 0.30706 -0.25600
C 	C 	0.75904 0.74871 0.19232 -0.07300
C 	C 	0.79357 0.77763 0.17625 0.04400
I 	I 	0.88686 0.72944 0.16136 -0.12600
H 	H 	0.89037 0.86297 0.19824 0.03200
H 	H 	0.81529 0.91597 0.21059 0.07400
H 	H 	0.61932 0.86301 0.20052 0.07400
H 	H 	0.68391 0.70051 0.21555 0.08800
H 	H 	0.60572 0.75901 0.19552 0.08000
H 	H 	0.70453 0.77695 0.29068 0.07500
H 	H 	0.61464 0.80229 0.27136 0.07300
H 	H 	0.78090 0.70236 0.19721 0.09300
C 	C 	0.14027 0.90835 0.09037 -0.04400
O 	O 	0.19339 0.85360 0.10295 -0.15400
C 	C 	0.20084 0.82403 0.14394 0.07400
C 	C 	0.21574 0.84649 0.19090 0.03600
I 	I 	0.23353 0.92641 0.20859 -0.05700
C 	C 	0.23006 0.81155 0.23014 -0.07900
C 	C 	0.23485 0.75333 0.22418 0.07600
C 	C 	0.26918 0.71381 0.26729 -0.11500
C 	C 	0.23369 0.67110 0.27183 -0.03500
C 	C 	0.27792 0.63395 0.31604 -0.01000
C 	C 	0.34100 0.59235 0.31447 0.10500
Cl	Cl	0.35568 0.56633 0.25885 -0.25100
C 	C 	0.39533 0.57633 0.35670 0.14900
Cl	Cl	0.47914 0.53946 0.35184 -0.23500
C 	C 	0.38541 0.59694 0.40160 -0.10600
C 	C 	0.31944 0.63194 0.40346 0.14500
Cl	Cl	0.30665 0.66110 0.45854 -0.25800
C 	C 	0.26568 0.65020 0.36092 0.10800
Cl	Cl	0.18539 0.69889 0.36443 -0.25400
C 	C 	0.22199 0.73083 0.17783 -0.08500
C 	C 	0.20411 0.76603 0.13813 0.04000
I 	I 	0.18731 0.72911 0.06906 -0.06800
H 	H 	0.14718 0.92437 0.05917 0.04500
H 	H 	0.14524 0.94075 0.11839 0.06500
H 	H 	0.24416 0.82843 0.26591 0.07700
H 	H 	0.27468 0.73966 0.30070 0.08300
H 	H 	0.32185 0.68940 0.26524 0.10300
H 	H 	0.18103 0.69541 0.27386 0.07500
H 	H 	0.22785 0.64338 0.23976 0.07600
H 	H 	0.22940 0.68529 0.17256 0.07900
C 	C 	0.13807 0.09705 0.16655 -0.02700
O 	O 	0.20867 0.09230 0.18026 -0.15600
C 	C 	0.22781 0.14178 0.19364 0.07300
C 	C 	0.28306 0.13659 0.23494 0.04600
I 	I 	0.32123 0.06436 0.28120 -0.05300
C 	C 	0.31575 0.17779 0.24589 -0.07800
C 	C 	0.29503 0.22524 0.21575 0.07600
C 	C 	0.33722 0.26529 0.22838 -0.10900
C 	C 	0.30159 0.32680 0.20639 -0.03500
C 	C 	0.31989 0.37162 0.24242 -0.01800
C 	C 	0.38855 0.37076 0.25990 0.11100
Cl	Cl	0.44992 0.32922 0.23081 -0.24800
C 	C 	0.40897 0.40170 0.30142 0.15800
Cl	Cl	0.49532 0.39874 0.32304 -0.21000
C 	C 	0.36057 0.43371 0.32544 -0.07400
C 	C 	0.29026 0.44393 0.30213 0.14600
Cl	Cl	0.22678 0.49712 0.32380 -0.25000
C 	C 	0.26984 0.41216 0.26149 0.10800
Cl	Cl	0.18122 0.42246 0.23667 -0.26100
C 	C 	0.23933 0.23119 0.17435 -0.07400
C 	C 	0.20451 0.19099 0.16360 0.04200
I 	I 	0.12076 0.20997 0.10015 -0.06900
H 	H 	0.10316 0.14204 0.16732 0.06300
H 	H 	0.13069 0.07153 0.19233 0.06300
H 	H 	0.35939 0.17154 0.27750 0.07900
H 	H 	0.38513 0.24383 0.21800 0.09500
H 	H 	0.35337 0.26871 0.26811 0.08700
H 	H 	0.31634 0.32902 0.17369 0.07500
H 	H 	0.24561 0.33648 0.19454 0.07700
H 	H 	0.22352 0.26595 0.14915 0.07300
C 	C 	0.62436 0.57573 0.67553 -0.04000
O 	O 	0.59783 0.63721 0.66985 -0.12300
C 	C 	0.64215 0.66867 0.69168 0.07700
C 	C 	0.64339 0.71223 0.66466 0.06300
I 	I 	0.58897 0.72500 0.59121 -0.03400
C 	C 	0.67909 0.74998 0.68619 -0.08100
C 	C 	0.71500 0.74468 0.73495 0.08100
C 	C 	0.74488 0.79011 0.76006 -0.10900
C 	C 	0.80507 0.79222 0.74401 -0.03900
C 	C 	0.83757 0.83247 0.77714 -0.01200
C 	C 	0.80767 0.89292 0.76979 0.10200
Cl	Cl	0.74440 0.92190 0.71586 -0.25700
C 	C 	0.82549 0.93079 0.80642 0.16000
Cl	Cl	0.78553 0.00620 0.79818 -0.27600
C 	C 	0.87281 0.90863 0.85048 -0.09000
C 	C 	0.90719 0.84883 0.85647 0.15400
Cl	Cl	0.96835 0.82111 0.91157 -0.25700
C 	C 	0.89024 0.81078 0.81986 0.10100
Cl	Cl	0.93280 0.73572 0.82946 -0.25200
C 	C 	0.71578 0.70038 0.76171 -0.07400
C 	C 	0.67840 0.66356 0.74111 0.04200
I 	I 	0.67149 0.60922 0.78990 -0.03600
H 	H 	0.59595 0.56246 0.69553 0.09700
H 	H 	0.68003 0.55959 0.69494 0.07100
H 	H 	0.67658 0.78482 0.66521 0.08100
H 	H 	0.76267 0.78233 0.79941 0.08300
H 	H 	0.70360 0.83287 0.75372 0.08900
H 	H 	0.84259 0.74815 0.74452 0.08500
H 	H 	0.78677 0.80717 0.70628 0.08000
H 	H 	0.74233 0.69649 0.79965 0.08100
C 	C 	0.14120 0.83446 0.91076 -0.03600
O 	O 	0.11680 0.85802 0.86355 -0.14500
C 	C 	0.15704 0.84049 0.83168 0.07600
C 	C 	0.12186 0.83276 0.78400 0.05500
I 	I 	0.01854 0.83598 0.76502 -0.02100
C 	C 	0.15365 0.82339 0.74782 -0.07200
C 	C 	0.22155 0.82149 0.75833 0.08700
C 	C 	0.25648 0.80948 0.71943 -0.11000
C 	C 	0.31448 0.75078 0.72795 -0.03000
C 	C 	0.32098 0.72044 0.68129 -0.02000
C 	C 	0.37248 0.72064 0.66151 0.10900
Cl	Cl	0.42440 0.76394 0.68664 -0.26300
C 	C 	0.38280 0.68662 0.62129 0.14900
Cl	Cl	0.44554 0.69070 0.59651 -0.24800
C 	C 	0.34204 0.65154 0.60059 -0.07100
C 	C 	0.28387 0.65874 0.61623 0.14700
Cl	Cl	0.21909 0.62959 0.58432 -0.23800
C 	C 	0.27472 0.69155 0.65706 0.10800
Cl	Cl	0.20506 0.69533 0.67826 -0.26500
C 	C 	0.25733 0.82928 0.80556 -0.07700
C 	C 	0.22621 0.83899 0.84243 0.04600
I 	I 	0.28953 0.85450 0.90991 -0.05500
H 	H 	0.19549 0.80610 0.92070 0.07000
H 	H 	0.11061 0.80746 0.91278 0.09000
H 	H 	0.12512 0.81767 0.71143 0.09500
H 	H 	0.27752 0.84431 0.71847 0.08800
H 	H 	0.21834 0.81043 0.68397 0.09400
H 	H 	0.36299 0.75723 0.74972 0.07600
H 	H 	0.30581 0.72186 0.75035 0.07600
H 	H 	0.30974 0.82843 0.81358 0.07800
C 	C 	0.37683 0.34789 0.66968 -0.04100
O 	O 	0.38017 0.29333 0.64706 -0.24300
C 	C 	0.34163 0.26534 0.65967 0.08000
C 	C 	0.27938 0.26432 0.62716 0.02900
I 	I 	0.24210 0.30515 0.55945 -0.11800
C 	C 	0.24108 0.23562 0.63913 -0.07500
C 	C 	0.26490 0.20704 0.68325 0.07200
C 	C 	0.22457 0.17490 0.69556 -0.10400
C 	C 	0.16358 0.21601 0.71180 -0.03600
C 	C 	0.15047 0.18586 0.74868 -0.02100
C 	C 	0.11451 0.14623 0.73392 0.09600
Cl	Cl	0.07523 0.13784 0.67250 -0.25900
C 	C 	0.11126 0.11173 0.76789 0.14800
Cl	Cl	0.06733 0.06144 0.74887 -0.27400
C 	C 	0.14297 0.11708 0.81685 -0.13700
C 	C 	0.17691 0.15785 0.83188 0.12400
Cl	Cl	0.21897 0.16368 0.89318 -0.34300
C 	C 	0.18132 0.19169 0.79802 0.09600
Cl	Cl	0.22986 0.23858 0.81805 -0.27400
C 	C 	0.32753 0.20744 0.71544 -0.07200
C 	C 	0.36598 0.23619 0.70382 0.03400
I 	I 	0.46199 0.23191 0.75286 -0.06100
H 	H 	0.42904 0.34573 0.69208 0.06400
H 	H 	0.34233 0.36033 0.69320 0.07300
H 	H 	0.19320 0.23493 0.61386 0.07800
H 	H 	0.25934 0.14276 0.72426 0.08000
H 	H 	0.20589 0.14978 0.66410 0.08500
H 	H 	0.17344 0.25635 0.72647 0.07900
H 	H 	0.11737 0.23054 0.68050 0.07800
H 	H 	0.34678 0.18505 0.74948 0.08500
