data_crystal

_cell_length_a 36.59780
_cell_length_b 35.45360
_cell_length_c 13.52150
_cell_angle_alpha 82.36410
_cell_angle_beta  88.44520
_cell_angle_gamma 91.04230

_symmetry_space_group_name_	'P 1'
_symmetry_space_group_name_H-M	'P 1'

loop_
_symmetry_equiv_pos_as_xyz
  x,y,z

loop_
_atom_site_label
_atom_site_type_symbol
_atom_site_fract_x
_atom_site_fract_y
_atom_site_fract_z
_atom_site_charge
Eu	Eu	0.33911 0.34662 -0.03758 1.69300
O 	O 	0.33464 0.42653 0.85413 -0.31200
C 	C 	0.29005 0.31916 0.81070 0.29000
O 	O 	0.39827 0.29456 0.05385 -0.32100
O 	O 	0.39518 0.35847 0.02242 -0.45900
O 	O 	0.32853 0.26282 0.03878 -0.32700
O 	O 	0.31804 0.32768 0.76132 -0.32200
O 	O 	0.28402 0.33422 0.89920 -0.39400
O 	O 	0.31911 0.40166 0.01220 -0.45800
C 	C 	0.32740 0.43223 0.93929 0.33300
O 	O 	0.31782 0.31534 0.11142 -0.41700
C 	C 	0.31390 0.27645 0.10738 0.30500
C 	C 	0.41465 0.32507 0.04058 0.31000
Eu	Eu	0.65420 0.32862 0.00642 1.69500
O 	O 	0.67187 0.39064 0.12450 -0.32000
C 	C 	0.71121 0.30441 0.15521 0.29000
O 	O 	0.58746 0.31245 1.12472 -0.28900
O 	O 	0.59527 0.33947 0.96498 -0.39700
O 	O 	0.64029 0.25718 0.90115 -0.29700
O 	O 	0.68441 0.31129 0.20470 -0.32500
O 	O 	0.71233 0.31604 0.05310 -0.44800
O 	O 	0.66872 0.39123 -0.04184 -0.45100
C 	C 	0.67167 0.40952 0.04244 0.31400
O 	O 	0.66965 0.31335 0.85283 -0.39300
C 	C 	0.66585 0.27418 0.85445 0.28200
C 	C 	0.57322 0.32602 1.04797 0.26400
Eu	Eu	0.34569 0.67061 0.03333 1.68100
O 	O 	0.33339 0.59068 0.13445 -0.32900
C 	C 	0.28828 0.68154 0.19158 0.29200
O 	O 	0.41355 0.71384 1.07210 -0.29400
O 	O 	0.40437 0.66787 0.97462 -0.39600
O 	O 	0.30940 0.74662 0.98725 -0.27900
O 	O 	0.31391 0.67140 0.24356 -0.31700
O 	O 	0.28737 0.67294 0.09453 -0.43500
O 	O 	0.33227 0.61556 -0.02810 -0.45000
C 	C 	0.33180 0.58506 0.04777 0.31900
O 	O 	0.32856 0.70434 0.88712 -0.39300
C 	C 	0.30861 0.73587 0.90552 0.29400
C 	C 	0.42695 0.68997 1.02601 0.26400
Eu	Eu	0.66417 0.65549 0.04385 1.70100
O 	O 	0.59407 0.66389 0.15378 -0.34400
C 	C 	0.70309 0.71215 0.15575 0.29400
O 	O 	0.70825 0.58581 1.07708 -0.28100
O 	O 	0.65729 0.59794 0.98926 -0.39100
O 	O 	0.74182 0.66426 0.96931 -0.27700
O 	O 	0.71935 0.68251 0.17406 -0.33300
O 	O 	0.67171 0.71289 0.09998 -0.44700
O 	O 	0.60754 0.67124 -0.01132 -0.45600
C 	C 	0.58288 0.66941 0.06912 0.32300
O 	O 	0.68929 0.68059 0.89319 -0.39200
C 	C 	0.72719 0.68175 0.89805 0.28900
C 	C 	0.68314 0.57332 1.03277 0.26200
Eu	Eu	0.84283 0.16310 0.55483 1.80200
O 	O 	0.86230 0.08402 0.64211 -0.32100
C 	C 	0.78666 0.20443 0.66685 0.30100
O 	O 	0.90847 0.21155 0.46233 -0.30200
O 	O 	0.90108 0.14858 0.51381 -0.44100
O 	O 	0.83135 0.24265 0.45808 -0.30300
O 	O 	0.81641 0.21526 0.69131 -0.33600
O 	O 	0.78479 0.17808 0.59956 -0.44500
O 	O 	0.82351 0.10492 0.52089 -0.43600
C 	C 	0.84348 0.07650 0.57407 0.30000
O 	O 	0.83257 0.18739 0.39384 -0.42400
C 	C 	0.82124 0.22454 0.39294 0.29300
C 	C 	0.92269 0.18125 0.48905 0.28900
Eu	Eu	0.83611 0.84171 0.43482 1.77000
O 	O 	0.84597 0.92371 0.36193 -0.33400
C 	C 	0.76646 0.84105 0.31769 0.26800
O 	O 	0.89748 0.78617 0.49705 -0.30500
O 	O 	0.89758 0.84970 0.44904 -0.44900
O 	O 	0.80533 0.76339 0.49047 -0.31600
O 	O 	0.77488 0.87158 0.26919 -0.29300
O 	O 	0.77484 0.83435 0.41783 -0.42900
O 	O 	0.82690 0.89391 0.51259 -0.42500
C 	C 	0.83739 0.92637 0.44834 0.30400
O 	O 	0.83026 0.80426 0.58517 -0.41000
C 	C 	0.80923 0.77216 0.57372 0.30300
C 	C 	0.91526 0.81552 0.47478 0.29700
Eu	Eu	0.15469 0.83397 0.46352 1.83900
O 	O 	0.08515 0.84410 0.36846 -0.34400
C 	C 	0.17659 0.77907 0.32208 0.28900
O 	O 	0.19923 0.90417 0.41883 -0.34100
O 	O 	0.14551 0.89321 0.50441 -0.44400
O 	O 	0.23163 0.82227 0.51443 -0.32600
O 	O 	0.16579 0.80538 0.26372 -0.33100
O 	O 	0.16470 0.77505 0.42120 -0.44200
O 	O 	0.09744 0.81606 0.52300 -0.43000
C 	C 	0.07326 0.82813 0.44850 0.30000
O 	O 	0.18057 0.81543 0.61286 -0.42600
C 	C 	0.21791 0.81128 0.59644 0.29900
C 	C 	0.17385 0.91716 0.46262 0.29800
Eu	Eu	0.15946 0.15659 0.55091 1.81100
O 	O 	0.08419 0.13697 0.62454 -0.32600
C 	C 	0.18668 0.20840 0.69508 0.29200
O 	O 	0.20616 0.09698 0.46508 -0.30200
O 	O 	0.14585 0.09877 0.50300 -0.44300
O 	O 	0.23834 0.16726 0.48952 -0.31900
O 	O 	0.17836 0.17953 0.75110 -0.32800
O 	O 	0.17296 0.21392 0.59982 -0.44300
O 	O 	0.10496 0.17830 0.49290 -0.43200
C 	C 	0.07694 0.15975 0.55256 0.30100
O 	O 	0.18738 0.17930 0.40204 -0.42500
C 	C 	0.22489 0.18308 0.41408 0.30600
C 	C 	0.17718 0.07959 0.48066 0.29000
C 	C 	0.32836 0.47145 0.96616 -0.00400
C 	C 	0.36151 0.49323 0.95513 -0.01100
C 	C 	0.39423 0.47827 0.91944 -0.01300
C 	C 	0.42663 0.49987 0.90849 -0.03700
C 	C 	0.42742 0.53660 0.93362 0.00600
C 	C 	0.39587 0.55187 0.97052 -0.07700
C 	C 	0.36252 0.53064 0.98224 0.14100
C 	C 	0.33069 0.54580 0.02228 -0.19300
C 	C 	0.29784 0.52382 0.03556 0.09200
C 	C 	0.26579 0.53832 0.07623 -0.08300
C 	C 	0.23325 0.51700 0.08687 -0.00600
C 	C 	0.23174 0.48106 0.05656 -0.05100
C 	C 	0.26287 0.46604 0.01642 -0.01400
C 	C 	0.29651 0.48672 0.00634 -0.06000
H 	H 	0.39541 0.44964 0.90043 0.04600
H 	H 	0.45131 0.48797 0.88077 0.05200
H 	H 	0.45266 0.55326 0.92529 0.04600
H 	H 	0.39806 0.58036 0.99047 0.07400
H 	H 	0.26549 0.56628 0.10003 0.05800
H 	H 	0.20899 0.52852 0.11816 0.02500
H 	H 	0.20629 0.46477 0.06393 0.03500
H 	H 	0.26005 0.43821 -0.00733 0.03000
C 	C 	0.45515 0.32641 0.04067 -0.19900
C 	C 	0.47362 0.34622 0.10962 0.09700
C 	C 	0.45401 0.36469 0.18034 -0.08600
C 	C 	0.47222 0.38470 0.24685 -0.00200
C 	C 	0.51015 0.38677 0.24473 -0.05400
C 	C 	0.53018 0.36842 0.17695 -0.00800
C 	C 	0.51250 0.34719 0.10978 -0.07600
C 	C 	0.53284 0.32722 1.04333 0.01700
C 	C 	0.51440 0.30725 0.97468 -0.02200
C 	C 	0.53386 0.28626 0.90910 -0.01200
C 	C 	0.51573 0.26743 0.84013 -0.04200
C 	C 	0.47796 0.26900 0.83464 0.00200
C 	C 	0.45801 0.28877 0.89942 -0.08200
C 	C 	0.47559 0.30751 0.97194 0.14000
H 	H 	0.42450 0.36371 0.18590 0.06300
H 	H 	0.45676 0.39868 0.30030 0.02800
H 	H 	0.52413 0.40247 0.29639 0.04100
H 	H 	0.55963 0.37117 0.17795 0.02400
H 	H 	0.56324 0.28384 0.91043 0.04800
H 	H 	0.53110 0.25166 0.79039 0.04700
H 	H 	0.46397 0.25464 0.78029 0.03200
H 	H 	0.42873 0.28922 0.89127 0.05800
C 	C 	0.67350 0.45166 0.03372 -0.19600
C 	C 	0.64609 0.47127 0.08145 0.09600
C 	C 	0.61518 0.45167 0.13029 -0.08300
C 	C 	0.58923 0.47072 0.18101 -0.00200
C 	C 	0.59321 0.50956 0.18385 -0.06000
C 	C 	0.62271 0.52980 0.13411 -0.00100
C 	C 	0.64933 0.51130 0.08090 -0.08000
C 	C 	0.67926 0.53188 1.02969 0.02000
C 	C 	0.70584 0.51257 0.97848 -0.02200
C 	C 	0.73533 0.53270 0.92412 -0.01000
C 	C 	0.76199 0.51358 0.87606 -0.04200
C 	C 	0.75998 0.47421 0.88105 0.00900
C 	C 	0.73104 0.45367 0.93315 -0.08500
C 	C 	0.70321 0.47235 0.98137 0.14900
H 	H 	0.61060 0.42149 0.12987 0.04700
H 	H 	0.56601 0.45523 0.21878 0.02500
H 	H 	0.57338 0.52412 0.22487 0.03800
H 	H 	0.62444 0.55997 0.13881 0.00100
H 	H 	0.73810 0.56335 0.91794 0.04800
H 	H 	0.78444 0.52943 0.83520 0.04600
H 	H 	0.78093 0.45946 0.84426 0.03800
H 	H 	0.73096 0.42309 0.93534 0.08600
C 	C 	0.54319 0.67375 0.05237 -0.20000
C 	C 	0.53006 0.70790 0.99961 0.15000
C 	C 	0.55421 0.73834 0.96121 -0.08500
C 	C 	0.54121 0.77151 0.90794 0.00800
C 	C 	0.50406 0.77524 0.89178 -0.04300
C 	C 	0.47954 0.74613 0.93048 -0.01100
C 	C 	0.49189 0.71239 0.98639 -0.02300
C 	C 	0.46679 0.68345 1.02904 0.01700
C 	C 	0.47993 0.64903 0.08019 -0.08300
C 	C 	0.45550 0.61958 0.12346 -0.00300
C 	C 	0.46842 0.58567 0.17287 -0.06300
C 	C 	0.50574 0.58018 0.17999 -0.00200
C 	C 	0.53047 0.60872 0.13891 -0.08500
C 	C 	0.51815 0.64393 0.09039 0.09600
H 	H 	0.58333 0.73712 0.97215 0.08500
H 	H 	0.56010 0.79443 0.87885 0.03500
H 	H 	0.49413 0.80092 0.84956 0.04600
H 	H 	0.45090 0.75028 0.91555 0.04500
H 	H 	0.42620 0.62231 0.12012 -0.00400
H 	H 	0.44933 0.56350 0.20560 0.03900
H 	H 	0.51553 0.55366 0.21798 0.02400
H 	H 	0.55922 0.60271 0.14543 0.04800
C 	C 	0.83915 0.96385 0.48522 -0.09500
C 	C 	0.87307 0.98402 0.48314 0.03800
C 	C 	0.90602 0.96754 0.45417 -0.05000
C 	C 	0.93915 0.98774 0.44973 -0.02400
C 	C 	0.94030 0.02467 0.47334 -0.02300
C 	C 	0.90845 0.04140 0.50341 -0.05000
C 	C 	0.87451 0.02116 0.51160 0.03700
C 	C 	0.84232 0.03736 0.54690 -0.09200
C 	C 	0.80887 0.01625 0.55479 0.03500
C 	C 	0.77689 0.03073 0.59591 -0.04500
C 	C 	0.74391 0.01021 0.60246 -0.02600
C 	C 	0.74186 0.97513 0.56756 -0.02100
C 	C 	0.77296 0.95999 0.52743 -0.04900
C 	C 	0.80710 0.97975 0.52238 0.04000
H 	H 	0.90671 0.93879 0.43590 0.05200
H 	H 	0.96405 0.97468 0.42750 0.03600
H 	H 	0.96606 0.04035 0.46923 0.04000
H 	H 	0.91094 0.07024 0.52042 0.06200
H 	H 	0.77709 0.05780 0.62453 0.04800
H 	H 	0.71980 0.02167 0.63461 0.03900
H 	H 	0.71607 0.95946 0.57195 0.03600
H 	H 	0.76980 0.93272 0.50090 0.05400
C 	C 	0.03340 0.82167 0.46468 -0.09300
C 	C 	0.01332 0.84395 0.52551 0.03700
C 	C 	0.03113 0.87051 0.57832 -0.04600
C 	C 	0.01138 0.89197 0.63943 -0.02100
C 	C 	0.97362 0.88725 0.65007 -0.02200
C 	C 	0.95536 0.86162 0.59813 -0.04500
C 	C 	0.97458 0.84028 0.53305 0.03900
C 	C 	0.95584 0.81552 0.47614 -0.09400
C 	C 	0.97614 0.79252 0.41708 0.03300
C 	C 	0.95865 0.76744 0.35897 -0.05100
C 	C 	0.97886 0.74425 0.30354 -0.02700
C 	C 	0.01684 0.74571 0.30344 -0.02600
C 	C 	0.03480 0.77094 0.35701 -0.04800
C 	C 	0.01500 0.79505 0.41340 0.03700
H 	H 	0.06049 0.87500 0.57305 0.05300
H 	H 	0.02544 0.91213 0.67934 0.04400
H 	H 	0.95839 0.90354 0.69876 0.04500
H 	H 	0.92608 0.85855 0.61056 0.05700
H 	H 	0.92926 0.76548 0.35493 0.04100
H 	H 	0.96504 0.72504 0.26028 0.03000
H 	H 	0.03245 0.72747 0.26084 0.03100
H 	H 	0.06440 0.77126 0.35401 0.04600
C 	C 	0.17545 0.03794 0.47789 -0.09300
C 	C 	0.15176 0.02238 0.41166 0.03800
C 	C 	0.12990 0.04599 0.34547 -0.05200
C 	C 	0.10665 0.03050 0.28080 -0.02600
C 	C 	0.10481 0.99139 0.27964 -0.03000
C 	C 	0.12652 0.96750 0.34246 -0.04600
C 	C 	0.15039 0.98242 0.40899 0.03300
C 	C 	0.17326 0.95827 0.47070 -0.09400
C 	C 	0.19638 0.97360 0.53818 0.04000
C 	C 	0.21826 0.94969 0.60344 -0.04800
C 	C 	0.24061 0.96465 0.67096 -0.02000
C 	C 	0.24137 0.00353 0.67591 -0.02600
C 	C 	0.21989 0.02772 0.61314 -0.04400
C 	C 	0.19735 0.01344 0.54239 0.03100
H 	H 	0.13074 0.07663 0.34181 0.05100
H 	H 	0.09015 0.04898 0.23079 0.02700
H 	H 	0.08676 0.97950 0.22906 0.03000
H 	H 	0.12446 0.93731 0.33790 0.03500
H 	H 	0.21800 0.91917 0.60380 0.04900
H 	H 	0.25713 0.94593 0.72038 0.03900
H 	H 	0.25851 0.01503 0.72917 0.04100
H 	H 	0.22098 0.05756 0.62192 0.03800
C 	C 	0.96287 0.17886 0.49763 -0.09400
C 	C 	0.98256 0.15380 0.44344 0.03700
C 	C 	0.96532 0.13426 0.37204 -0.05100
C 	C 	0.98465 0.10922 0.32016 -0.02800
C 	C 	0.02145 0.10316 0.33772 -0.02600
C 	C 	0.03927 0.12235 0.40661 -0.04900
C 	C 	0.02037 0.14810 0.46004 0.03600
C 	C 	0.03841 0.16775 0.52974 -0.09200
C 	C 	0.01922 0.19396 0.58086 0.03700
C 	C 	0.03712 0.21468 0.64866 -0.04600
C 	C 	0.01807 0.23974 0.70096 -0.02200
C 	C 	0.98085 0.24448 0.68773 -0.02300
C 	C 	0.96251 0.22447 0.62144 -0.04800
C 	C 	0.98127 0.19935 0.56555 0.03200
H 	H 	0.93687 0.13832 0.35469 0.05200
H 	H 	0.97097 0.09443 0.26612 0.03000
H 	H 	0.03629 0.08362 0.29736 0.03100
H 	H 	0.06799 0.11689 0.41720 0.05000
H 	H 	0.06601 0.21175 0.66207 0.04500
H 	H 	0.03220 0.25535 0.75252 0.04300
H 	H 	0.96607 0.26370 0.72931 0.04300
H 	H 	0.93350 0.22893 0.61541 0.04100
C 	C 	0.21281 0.23661 0.72598 -0.09100
C 	C 	0.20191 0.27449 0.73088 0.04000
C 	C 	0.16562 0.28573 0.71115 -0.04500
C 	C 	0.15519 0.32315 0.71439 -0.02100
C 	C 	0.18047 0.35013 0.73742 -0.01900
C 	C 	0.21625 0.33977 0.75854 -0.04400
C 	C 	0.22751 0.30187 0.75699 0.04000
C 	C 	0.26370 0.29112 0.78000 -0.08800
C 	C 	0.27450 0.25308 0.77629 0.03300
C 	C 	0.31015 0.24117 0.80218 -0.03700
C 	C 	0.32088 0.20403 0.79651 -0.01900
C 	C 	0.29662 0.17795 0.76459 -0.02100
C 	C 	0.26126 0.18866 0.73994 -0.04000
C 	C 	0.24923 0.22598 0.74742 0.03300
H 	H 	0.14485 0.26578 0.69353 0.05500
H 	H 	0.12735 0.33129 0.69871 0.04000
H 	H 	0.17231 0.37923 0.73924 0.04400
H 	H 	0.23491 0.36186 0.77558 0.06200
H 	H 	0.33014 0.26019 0.82779 0.04400
H 	H 	0.34824 0.19549 0.81661 0.04600
H 	H 	0.30520 0.14920 0.75928 0.04200
H 	H 	0.24367 0.16726 0.71485 0.03500
C 	C 	0.69401 0.25321 0.80413 -0.08500
C 	C 	0.71527 0.22554 0.86102 0.03200
C 	C 	0.70901 0.21569 0.96527 -0.03300
C 	C 	0.72952 0.18794 1.01994 -0.02000
C 	C 	0.75689 0.16964 0.97290 -0.01700
C 	C 	0.76439 0.17945 0.87119 -0.04300
C 	C 	0.74428 0.20779 0.81386 0.04000
C 	C 	0.75297 0.21872 0.71127 -0.09200
C 	C 	0.73109 0.24546 0.65392 0.04000
C 	C 	0.73869 0.25636 0.55099 -0.04600
C 	C 	0.71717 0.28261 0.49450 -0.02000
C 	C 	0.68747 0.29835 0.53894 -0.02000
C 	C 	0.67950 0.28844 0.64053 -0.04600
C 	C 	0.70133 0.26241 0.70014 0.03800
H 	H 	0.68839 0.22920 1.00621 0.04400
H 	H 	0.72409 0.18043 1.09918 0.05900
H 	H 	0.77253 0.14788 1.01551 0.04900
H 	H 	0.78597 0.16437 0.83797 0.03800
H 	H 	0.76127 0.24469 0.51326 0.05900
H 	H 	0.72347 0.29071 0.41585 0.05000
H 	H 	0.67058 0.31842 0.49455 0.04400
H 	H 	0.65593 0.30125 0.67146 0.05900
C 	C 	0.79537 0.24170 0.31798 -0.09600
C 	C 	0.80395 0.27763 0.26207 0.03500
C 	C 	0.83956 0.29399 0.26145 -0.05100
C 	C 	0.84756 0.33004 0.21026 -0.02500
C 	C 	0.82047 0.35058 0.15855 -0.02700
C 	C 	0.78535 0.33492 0.15629 -0.05300
C 	C 	0.77659 0.29809 0.20617 0.03500
C 	C 	0.74103 0.28189 0.20365 -0.10000
C 	C 	0.73327 0.24463 0.25258 0.02400
C 	C 	0.69851 0.22698 0.24600 -0.05000
C 	C 	0.69014 0.19121 0.29810 -0.03500
C 	C 	0.71607 0.17208 0.35739 -0.02800
C 	C 	0.75068 0.18840 0.36397 -0.04600
C 	C 	0.76025 0.22458 0.31090 0.02700
H 	H 	0.86166 0.27898 0.29976 0.06000
H 	H 	0.87490 0.34216 0.21098 0.03300
H 	H 	0.82673 0.37873 0.11959 0.02700
H 	H 	0.76529 0.35212 0.11520 0.05100
H 	H 	0.67743 0.24043 0.20000 0.01800
H 	H 	0.66337 0.17830 0.29250 0.02800
H 	H 	0.70939 0.14436 0.39832 0.03500
H 	H 	0.76942 0.17208 0.41158 0.04300
C 	C 	0.20491 0.75377 0.28984 -0.09300
C 	C 	0.24120 0.76806 0.27045 0.02900
C 	C 	0.25081 0.80612 0.28168 -0.03600
C 	C 	0.28637 0.82021 0.26144 -0.02800
C 	C 	0.31315 0.79688 0.22992 -0.02900
C 	C 	0.30460 0.75924 0.21911 -0.03900
C 	C 	0.26870 0.74402 0.23956 0.03300
C 	C 	0.25984 0.70575 0.22825 -0.09300
C 	C 	0.22361 0.69145 0.24801 0.03700
C 	C 	0.21414 0.65332 0.23780 -0.05100
C 	C 	0.17844 0.63940 0.25731 -0.02500
C 	C 	0.15153 0.66297 0.28748 -0.02600
C 	C 	0.16012 0.70060 0.29854 -0.05000
C 	C 	0.19612 0.71549 0.27944 0.03600
H 	H 	0.23106 0.82549 0.30616 0.02400
H 	H 	0.29315 0.84942 0.27009 0.03600
H 	H 	0.34072 0.80799 0.21382 0.02900
H 	H 	0.32649 0.74241 0.19406 0.02100
H 	H 	0.23417 0.63387 0.21496 0.05300
H 	H 	0.17163 0.61016 0.24902 0.03300
H 	H 	0.12384 0.65203 0.30240 0.03400
H 	H 	0.13824 0.71789 0.32186 0.05100
C 	C 	0.24072 0.79240 0.67662 -0.08900
C 	C 	0.26988 0.81275 0.71409 0.04000
C 	C 	0.27703 0.85165 0.67870 -0.04800
C 	C 	0.30607 0.87141 0.71423 -0.02100
C 	C 	0.32856 0.85303 0.78557 -0.02100
C 	C 	0.32204 0.81485 0.82246 -0.04400
C 	C 	0.29244 0.79413 0.78873 0.03800
C 	C 	0.28543 0.75540 0.82712 -0.08200
C 	C 	0.25592 0.73522 0.79063 0.04000
C 	C 	0.24748 0.69688 0.82979 -0.03700
C 	C 	0.21928 0.67676 0.79157 -0.01800
C 	C 	0.19889 0.69418 0.71390 -0.01900
C 	C 	0.20602 0.73210 0.67537 -0.04200
C 	C 	0.23402 0.75354 0.71406 0.04000
H 	H 	0.26039 0.86728 0.62325 0.05300
H 	H 	0.31121 0.90110 0.68591 0.03700
H 	H 	0.35124 0.86844 0.81246 0.04200
H 	H 	0.34058 0.80184 0.87717 0.05800
H 	H 	0.26235 0.68198 0.89049 0.06500
H 	H 	0.21336 0.64742 0.82206 0.05100
H 	H 	0.17730 0.67830 0.68359 0.04400
H 	H 	0.18945 0.74418 0.61464 0.05300
C 	C 	0.74864 0.81045 0.27020 -0.09400
C 	C 	0.76653 0.79559 0.18962 0.01800
C 	C 	0.80072 0.81074 0.14915 -0.04900
C 	C 	0.81760 0.79667 0.06838 -0.04000
C 	C 	0.80145 0.76684 0.02743 -0.02600
C 	C 	0.76861 0.75050 0.06805 -0.05900
C 	C 	0.75067 0.76429 0.14952 0.03700
C 	C 	0.71741 0.74722 0.19108 -0.09900
C 	C 	0.69900 0.76266 0.26935 0.03500
C 	C 	0.66531 0.74675 0.31051 -0.04900
C 	C 	0.64713 0.76208 0.38721 -0.02500
C 	C 	0.66207 0.79334 0.42499 -0.02200
C 	C 	0.69536 0.80940 0.38653 -0.05000
C 	C 	0.71456 0.79432 0.30889 0.03800
H 	H 	0.81494 0.83345 0.17900 0.00800
H 	H 	0.84343 0.80895 0.03756 0.02300
H 	H 	0.81449 0.75608 -0.03566 0.02400
H 	H 	0.75739 0.72714 0.03443 0.04100
H 	H 	0.65260 0.72236 0.28386 0.04700
H 	H 	0.62122 0.74978 0.41713 0.03800
H 	H 	0.64778 0.80528 0.48431 0.03600
H 	H 	0.70554 0.83394 0.41773 0.05800
C 	C 	0.24822 0.20631 0.33604 -0.09300
C 	C 	0.24492 0.20152 0.23409 0.04000
C 	C 	0.22199 0.17255 0.20482 -0.05100
C 	C 	0.21610 0.17022 0.10449 -0.02500
C 	C 	0.23279 0.19648 0.03116 -0.03200
C 	C 	0.25686 0.22409 0.05751 -0.04900
C 	C 	0.26484 0.22601 0.15876 0.03200
C 	C 	0.29179 0.25190 0.18586 -0.09600
C 	C 	0.29689 0.25482 0.28836 0.04000
C 	C 	0.32500 0.27833 0.31901 -0.04900
C 	C 	0.32778 0.28391 0.41857 -0.02000
C 	C 	0.30281 0.26631 0.48984 -0.02400
C 	C 	0.27597 0.24161 0.46277 -0.04400
C 	C 	0.27352 0.23393 0.36282 0.03500
H 	H 	0.20862 0.15110 0.25861 0.06000
H 	H 	0.19816 0.14818 0.08358 0.02700
H 	H 	0.22737 0.19519 -0.04661 0.02500
H 	H 	0.26863 0.24399 -0.00267 0.04000
H 	H 	0.34542 0.29244 0.26705 0.06100
H 	H 	0.34916 0.30238 0.44029 0.03800
H 	H 	0.30449 0.27151 0.56671 0.04500
H 	H 	0.25708 0.22916 0.52125 0.05500
C 	C 	0.74948 0.70505 0.81830 -0.08300
C 	C 	0.77610 0.68779 0.76196 0.03900
C 	C 	0.78217 0.64815 0.78009 -0.04500
C 	C 	0.80832 0.63124 0.72464 -0.02000
C 	C 	0.82912 0.65325 0.65021 -0.02000
C 	C 	0.82364 0.69226 0.63011 -0.04600
C 	C 	0.79676 0.71013 0.68387 0.04200
C 	C 	0.79018 0.74960 0.66093 -0.08800
C 	C 	0.76368 0.76692 0.71752 0.03800
C 	C 	0.75577 0.80606 0.69475 -0.03900
C 	C 	0.72996 0.82311 0.75088 -0.02200
C 	C 	0.71130 0.80177 0.83060 -0.01700
C 	C 	0.71794 0.76308 0.85376 -0.04000
C 	C 	0.74361 0.74480 0.79714 0.03800
H 	H 	0.76674 0.62962 0.83677 0.05900
H 	H 	0.81249 0.60090 0.73973 0.03900
H 	H 	0.84952 0.64003 0.60757 0.03900
H 	H 	0.84086 0.70811 0.57215 0.06000
H 	H 	0.76905 0.82399 0.63288 0.04900
H 	H 	0.72439 0.85306 0.73218 0.04200
H 	H 	0.69129 0.81517 0.87414 0.04900
H 	H 	0.70268 0.74796 0.91679 0.06300
