data_crystal

_cell_length_a 41.45320
_cell_length_b 40.13220
_cell_length_c 12.69040
_cell_angle_alpha 76.07460
_cell_angle_beta  103.35620
_cell_angle_gamma 121.91450

_symmetry_space_group_name_	'P 1'
_symmetry_space_group_name_H-M	'P 1'

loop_
_symmetry_equiv_pos_as_xyz
  x,y,z

loop_
_atom_site_label
_atom_site_type_symbol
_atom_site_fract_x
_atom_site_fract_y
_atom_site_fract_z
_atom_site_charge
C 	C 	0.07131 0.39244 0.33316 -0.08000
C 	C 	0.03856 0.35433 0.33830 0.02600
C 	C 	0.03760 0.32354 0.30035 -0.09300
C 	C 	0.00288 0.28370 0.30153 0.28700
O 	O 	0.00131 0.25821 0.26048 -0.25300
O 	O 	0.97183 0.27510 0.34996 -0.34400
C 	C 	0.06857 0.33247 0.24993 -0.00600
C 	C 	0.10096 0.37039 0.24617 -0.01500
C 	C 	0.12111 0.38789 0.15007 0.01400
C 	C 	0.16144 0.40610 0.16329 -0.03400
C 	C 	0.18238 0.43587 0.08224 -0.06300
C 	C 	0.16237 0.44744 -0.00952 0.07300
C 	C 	0.12320 0.42949 -0.02188 -0.00300
C 	C 	0.10153 0.39897 0.05447 -0.05300
C 	C 	0.11269 0.44713 0.88067 -0.02900
C 	C 	0.07654 0.43981 0.82808 -0.02400
C 	C 	0.07402 0.46024 0.72238 -0.03700
C 	C 	0.10813 0.48599 0.67173 -0.00300
C 	C 	0.14456 0.49395 0.72882 -0.07700
C 	C 	0.14610 0.47401 0.83465 0.07700
N 	N 	0.17714 0.47518 -0.09640 -0.14300
C 	C 	0.21618 0.49231 -0.11398 0.07400
C 	C 	0.24480 0.52602 -0.06556 -0.05300
C 	C 	0.28184 0.53169 -0.02766 -0.05100
C 	C 	0.29048 0.50336 -0.03778 0.07100
N 	N 	0.32753 0.50663 0.00201 -0.14200
C 	C 	0.34375 0.49471 -0.05208 0.08400
C 	C 	0.33892 0.49380 0.83459 -0.08300
C 	C 	0.36406 0.48767 0.79337 -0.00800
C 	C 	0.39232 0.48110 0.86583 -0.03500
C 	C 	0.39318 0.47789 -0.02031 -0.02400
C 	C 	0.37113 0.48825 0.01593 -0.02500
C 	C 	0.37536 0.50020 0.11308 -0.00500
C 	C 	0.40476 0.50754 0.19839 -0.04300
C 	C 	0.40828 0.52610 0.28557 -0.00800
C 	C 	0.37925 0.53543 0.28274 -0.02000
C 	C 	0.34899 0.52777 0.19219 -0.06700
C 	C 	0.34855 0.51115 0.10471 0.07000
C 	C 	0.26241 0.47130 -0.09384 -0.05600
C 	C 	0.22631 0.46658 -0.13441 -0.05600
C 	C 	0.10408 0.39822 0.30131 -0.01300
H 	H 	0.01315 0.34923 0.36465 -0.09600
H 	H 	0.94985 0.24692 0.34602 0.15500
H 	H 	0.06612 0.31119 0.20564 0.04400
H 	H 	0.17658 0.39915 0.23924 0.03700
H 	H 	0.21329 0.45038 0.09330 0.05400
H 	H 	0.07076 0.38668 0.04535 0.04600
H 	H 	0.05099 0.41762 0.86550 0.03300
H 	H 	0.10632 0.49973 0.58749 0.03800
H 	H 	0.17030 0.51409 0.69033 0.05600
H 	H 	0.23751 0.54617 -0.04986 0.06100
H 	H 	0.30317 0.55737 0.01144 0.05700
H 	H 	0.31906 0.50143 0.77817 0.05400
H 	H 	0.36418 0.49236 0.70578 0.03500
H 	H 	0.41510 0.47389 0.03698 0.04500
H 	H 	0.42651 0.50179 0.19040 0.07500
H 	H 	0.38080 0.54992 0.34699 0.04100
H 	H 	0.32823 0.53661 0.18896 0.05500
H 	H 	0.26784 0.44853 -0.10183 0.04400
H 	H 	0.20450 0.43973 -0.16831 0.04700
H 	H 	0.12912 0.42777 0.29446 0.04500
C 	C 	0.87561 0.44957 0.34225 -0.01700
C 	C 	0.85392 0.46217 0.25978 -0.00800
C 	C 	0.82049 0.43464 0.20237 -0.06000
C 	C 	0.79840 0.44779 0.11315 0.28200
O 	O 	0.76561 0.42381 0.08099 -0.24000
O 	O 	-0.18433 0.48731 0.06299 -0.30200
C 	C 	0.81110 0.39492 0.22032 -0.01500
C 	C 	0.83638 0.38381 0.28916 0.00200
C 	C 	0.84157 0.35463 0.25547 0.01300
C 	C 	0.81414 0.31398 0.27042 -0.03800
C 	C 	0.81273 0.28844 0.20899 -0.06400
C 	C 	0.83871 0.30414 0.13199 0.06400
C 	C 	0.86674 0.34345 0.12228 -0.00000
C 	C 	0.86902 0.36933 0.18333 -0.05300
C 	C 	0.88158 0.35161 1.02663 -0.02600
C 	C 	0.90748 0.38758 0.97231 -0.02800
C 	C 	0.91401 0.38936 0.86560 -0.02500
C 	C 	0.89294 0.35419 0.81616 -0.01400
C 	C 	0.86589 0.31801 0.87282 -0.07500
C 	C 	0.86100 0.31737 0.97958 0.07200
N 	N 	0.83452 0.28748 0.04459 -0.14100
C 	C 	0.79797 0.25508 0.01042 0.07000
C 	C 	0.78515 0.21727 0.07361 -0.05600
C 	C 	0.74596 0.19173 0.08298 -0.06000
C 	C 	0.71937 0.20359 0.02796 0.07500
N 	N 	0.67908 0.17912 0.03809 -0.14200
C 	C 	0.65082 0.16892 0.95190 0.07900
C 	C 	0.65457 0.17142 0.84294 -0.07400
C 	C 	0.62179 0.14794 0.77472 -0.00600
C 	C 	0.58640 0.12199 0.81695 -0.02600
C 	C 	0.58223 0.12514 0.92012 -0.02500
C 	C 	0.61530 0.14746 0.98682 -0.02200
C 	C 	0.62146 0.14414 0.09829 -0.00800
C 	C 	0.59508 0.12250 0.17179 -0.03000
C 	C 	0.60779 0.11847 0.28463 -0.02200
C 	C 	0.64796 0.13732 0.31937 -0.01400
C 	C 	0.67469 0.16002 0.24116 -0.07200
C 	C 	0.66036 0.16275 0.12914 0.07600
C 	C 	0.73208 0.23953 -0.04345 -0.05700
C 	C 	0.77083 0.26470 -0.05340 -0.05400
C 	C 	0.86572 0.40977 0.35857 -0.03300
H 	H 	0.86473 0.49352 0.23582 0.05100
H 	H 	-0.20122 0.49426 0.00118 0.15900
H 	H 	0.78743 0.37422 0.16914 0.05200
H 	H 	0.79197 0.30267 0.32211 0.03800
H 	H 	0.78967 0.25807 0.21515 0.04800
H 	H 	0.88787 0.40094 0.16506 0.07300
H 	H 	0.92208 0.41375 1.01246 0.04900
H 	H 	0.89690 0.35484 0.73396 0.03100
H 	H 	0.84928 0.29149 0.83413 0.04700
H 	H 	0.80572 0.20955 0.12530 0.04500
H 	H 	0.73659 0.16359 0.13571 0.04800
H 	H 	0.68231 0.18710 0.81442 0.05000
H 	H 	0.62547 0.14517 0.69608 0.03700
H 	H 	0.55588 0.10405 0.95530 0.03900
H 	H 	0.56492 0.10818 0.14038 0.04200
H 	H 	0.65843 0.13451 0.40564 0.03200
H 	H 	0.70518 0.17396 0.26777 0.04700
H 	H 	0.71198 0.24907 -0.08727 0.05100
H 	H 	0.78012 0.29392 -0.10041 0.05100
H 	H 	0.88587 0.40146 0.40869 0.05000
C 	C 	0.64964 0.58606 0.50178 -0.02400
C 	C 	0.63995 0.60808 0.40918 -0.01400
C 	C 	0.63092 0.59421 0.30877 -0.06100
C 	C 	0.59296 0.58413 0.24395 0.28100
O 	O 	0.57910 0.56040 0.17925 -0.27500
O 	O 	0.57066 0.59724 0.26706 -0.33300
C 	C 	0.64943 0.57535 0.29390 -0.02100
C 	C 	0.66859 0.56181 0.38453 0.00600
C 	C 	0.67901 0.53348 0.37012 0.00800
C 	C 	0.71736 0.54221 0.39694 -0.03000
C 	C 	0.73163 0.52802 0.33941 -0.06600
C 	C 	0.70708 0.50615 0.25415 0.07500
C 	C 	0.66850 0.49326 0.23959 -0.01200
C 	C 	0.65325 0.50447 0.30181 -0.04300
C 	C 	0.65519 0.48526 0.13348 -0.00000
C 	C 	0.62122 0.48121 1.07211 -0.03800
C 	C 	0.61937 0.49089 0.95772 -0.01400
C 	C 	0.65073 0.49974 0.90701 -0.01700
C 	C 	0.68455 0.50151 0.97122 -0.06600
C 	C 	0.68647 0.49513 1.08587 0.06600
N 	N 	0.71817 0.50585 0.16211 -0.14000
C 	C 	0.75766 0.52195 0.15146 0.07600
C 	C 	0.77939 0.56126 0.10238 -0.05900
C 	C 	0.81962 0.58098 0.12112 -0.05600
C 	C 	0.83872 0.56171 0.18977 0.07300
N 	N 	0.87986 0.57918 0.19579 -0.14600
C 	C 	0.89953 0.59246 0.10836 0.09200
C 	C 	0.88462 0.59347 0.99726 -0.09200
C 	C 	0.90592 0.59626 0.92125 0.00300
C 	C 	0.94080 0.59633 0.95682 -0.09500
C 	C 	0.95794 0.60117 0.06600 -0.01800
C 	C 	0.93614 0.59800 0.14048 -0.03200
C 	C 	0.93992 0.58832 0.25269 -0.01600
C 	C 	0.97043 0.58764 0.32781 -0.03100
C 	C 	0.96480 0.57398 0.43904 -0.03700
C 	C 	0.92837 0.56010 0.46960 -0.00600
C 	C 	0.89845 0.56138 0.39276 -0.08100
C 	C 	0.90497 0.57626 0.28358 0.07500
C 	C 	0.81649 0.52323 0.24313 -0.04900
C 	C 	0.77670 0.50330 0.22202 -0.05200
C 	C 	0.67109 0.56983 0.48869 -0.04100
H 	H 	0.62476 0.62191 0.42079 0.04200
H 	H 	0.54395 0.58524 0.22491 0.14500
H 	H 	0.64416 0.56615 0.21506 0.05900
H 	H 	0.73721 0.56407 0.45057 0.03400
H 	H 	0.76215 0.53907 0.35054 0.04900
H 	H 	0.62376 0.49776 0.28078 0.05500
H 	H 	0.59847 0.47617 1.11285 0.05000
H 	H 	0.65049 0.50900 0.81959 0.04000
H 	H 	0.70950 0.51152 0.93249 0.04800
H 	H 	0.76517 0.57703 0.05310 0.04600
H 	H 	0.83598 0.61132 0.08252 0.03900
H 	H 	0.85593 0.58835 0.96937 0.05200
H 	H 	0.89236 0.59196 0.83789 0.01600
H 	H 	0.98339 0.59875 0.09587 0.01600
H 	H 	0.99809 0.59949 0.30182 0.03100
H 	H 	0.92410 0.55093 0.55517 0.03100
H 	H 	0.87163 0.55201 0.41987 0.04800
H 	H 	0.82945 0.50775 0.30024 0.04900
H 	H 	0.76041 0.47394 0.26664 0.05400
H 	H 	0.68032 0.55416 0.55953 0.04100
C 	C 	0.15833 0.58294 0.82224 -0.01900
C 	C 	0.17988 0.57037 0.90694 -0.01100
C 	C 	0.21081 0.59771 0.97201 -0.06900
C 	C 	1.23116 0.58475 1.07060 0.27100
O 	O 	1.26479 0.60740 1.09900 -0.23000
O 	O 	1.21308 0.54725 1.13249 -0.29700
C 	C 	0.21885 0.63712 0.95300 -0.01400
C 	C 	0.19518 0.64844 0.87444 -0.00000
C 	C 	0.18717 0.67630 0.90308 0.00800
C 	C 	0.21389 0.71702 0.88781 -0.04600
C 	C 	0.21693 0.74118 -0.04346 -0.05500
C 	C 	0.19391 0.72368 0.04222 0.05800
C 	C 	0.16402 0.68501 0.04635 -0.00900
C 	C 	0.15988 0.66056 -0.02304 -0.04800
C 	C 	0.15260 0.67418 0.14898 -0.02200
C 	C 	0.12582 0.63774 0.20031 -0.03400
C 	C 	0.12256 0.63382 0.31209 -0.02500
C 	C 	0.14796 0.66666 0.36942 -0.01600
C 	C 	0.17668 0.70231 0.31700 -0.07600
C 	C 	0.17811 0.70553 0.20549 0.07100
N 	N 	0.20500 0.73571 0.14239 -0.14300
C 	C 	0.24556 0.75563 0.17816 0.06500
C 	C 	0.26343 0.73255 0.20181 -0.05100
C 	C 	0.30078 0.74882 0.17970 -0.05800
C 	C 	0.32155 0.78882 0.13667 0.07500
N 	N 	0.36169 0.80628 0.13173 -0.14700
C 	C 	0.38848 0.82019 0.21855 0.08200
C 	C 	0.38156 0.81916 0.32255 -0.07500
C 	C 	0.41083 0.84713 0.38782 -0.00600
C 	C 	0.44588 0.87574 0.34749 -0.02400
C 	C 	0.45403 0.87267 0.24981 -0.02400
C 	C 	0.42443 0.84474 0.18632 -0.01600
C 	C 	0.42001 0.84503 0.07557 -0.01700
C 	C 	0.44638 0.86904 0.00209 -0.01500
C 	C 	0.43378 0.87095 0.88862 -0.02700
C 	C 	0.39394 0.84809 0.85325 -0.00400
C 	C 	0.36741 0.82348 0.93085 -0.07800
C 	C 	0.38140 0.82242 0.04298 0.08500
C 	C 	0.30549 0.81304 0.12449 -0.06100
C 	C 	0.26771 0.79659 0.14493 -0.05600
C 	C 	0.16823 0.62283 0.80137 -0.03400
H 	H 	0.17009 0.53893 0.92892 0.03700
H 	H 	1.18425 0.53228 1.11414 0.14600
H 	H 	0.23957 0.65713 1.01076 0.04700
H 	H 	0.23509 0.72906 0.83207 0.03600
H 	H 	0.24020 0.77153 0.95165 0.03800
H 	H 	0.14107 0.62882 -0.00626 0.06900
H 	H 	0.10785 0.61319 0.15399 0.04900
H 	H 	0.14619 0.66440 0.45485 0.03300
H 	H 	0.19701 0.72668 0.36212 0.04400
H 	H 	0.24677 0.70082 0.22451 0.05200
H 	H 	0.31356 0.73022 0.19516 0.05500
H 	H 	0.35327 0.80045 0.34791 0.05300
H 	H 	0.40422 0.85009 0.46174 0.03600
H 	H 	0.47996 0.89596 0.21568 0.04100
H 	H 	0.47609 0.88730 0.03353 0.03800
H 	H 	0.38348 0.84956 0.76684 0.03200
H 	H 	0.33702 0.80684 0.90421 0.04900
H 	H 	0.32209 0.84454 0.09787 0.04700
H 	H 	0.25465 0.81500 0.12443 0.03600
H 	H 	0.14877 0.63125 0.74572 0.04600
C 	C 	0.67161 0.94079 0.96940 -0.04800
C 	C 	0.70451 0.97777 0.94818 -0.04100
C 	C 	0.72928 -0.00121 0.03477 -0.07100
C 	C 	0.76235 0.03882 0.01146 0.27300
O 	O 	0.77419 0.05007 -0.07738 -0.27600
O 	O 	0.77997 0.06393 1.09121 -0.31900
C 	C 	0.72001 0.98278 0.14258 -0.02300
C 	C 	0.68864 0.94470 0.16336 0.00200
C 	C 	0.67143 0.92894 0.26629 0.00400
C 	C 	0.66022 0.88872 0.30607 -0.03300
C 	C 	0.62580 0.86351 0.34994 -0.07000
C 	C 	0.60520 0.87999 0.36559 0.07400
C 	C 	0.61906 0.92035 0.34419 -0.01200
C 	C 	0.65221 0.94602 0.29268 -0.05100
C 	C 	0.59297 0.92611 0.37799 -0.02500
C 	C 	0.59594 0.96066 0.39734 -0.02800
C 	C 	0.57202 0.95704 0.46884 -0.03500
C 	C 	0.54563 0.91822 0.51483 -0.00500
C 	C 	0.53956 0.88404 0.48184 -0.07700
C 	C 	0.56417 0.88861 0.41449 0.08000
N 	N 	0.57071 0.86007 0.40230 -0.14700
C 	C 	0.54409 0.81889 0.39234 0.07100
C 	C 	0.52161 0.80882 0.29092 -0.05400
C 	C 	0.50994 0.77257 0.25773 -0.05300
C 	C 	0.52124 0.74609 0.32452 0.06800
N 	N 	0.51573 0.71177 0.28598 -0.14200
C 	C 	0.51435 0.67984 0.35696 0.08100
C 	C 	0.49685 0.66285 0.45249 -0.08100
C 	C 	0.50381 0.63409 0.52350 -0.00300
C 	C 	0.53050 0.62527 0.50288 -0.04100
C 	C 	0.54398 0.63908 0.40020 -0.02500
C 	C 	0.53418 0.66550 0.32764 -0.01800
C 	C 	0.54408 0.68547 0.22603 -0.01500
C 	C 	0.55367 0.67424 0.14772 -0.03600
C 	C 	0.54434 0.68578 0.03674 -0.06200
C 	C 	0.53324 0.71508 0.00912 -0.01200
C 	C 	0.52804 0.72975 0.09138 -0.07400
C 	C 	0.53173 0.71282 0.20095 0.07400
C 	C 	0.54093 0.75514 0.43007 -0.05700
C 	C 	0.55130 0.79051 0.46414 -0.05900
C 	C 	0.66728 0.92258 1.07725 -0.03700
H 	H 	0.70868 -0.00801 0.86449 -0.05500
H 	H 	0.80153 0.09091 1.06458 0.15300
H 	H 	0.73642 0.99983 0.20940 0.04700
H 	H 	0.67447 0.87555 0.28486 0.03200
H 	H 	0.61564 0.83197 0.36997 0.04600
H 	H 	0.65990 0.97665 0.26224 0.04400
H 	H 	0.61966 0.98933 0.37112 0.03700
H 	H 	0.53194 0.91412 0.58347 0.03600
H 	H 	0.52018 0.85491 0.52089 0.05500
H 	H 	0.51634 0.83072 0.23320 0.04900
H 	H 	0.49354 0.76617 0.17843 0.04800
H 	H 	0.47989 0.67290 0.47402 0.05400
H 	H 	0.49347 0.62369 0.60265 0.03000
H 	H 	0.56573 0.63436 0.38508 0.04800
H 	H 	0.56010 0.65062 0.17060 0.04400
H 	H 	0.52458 0.72328 -0.07571 0.02400
H 	H 	0.51668 0.74963 0.06735 0.05200
H 	H 	0.55088 0.73618 0.48440 0.03600
H 	H 	0.56957 0.79814 0.54089 0.03700
H 	H 	0.64187 0.89394 1.09377 0.04500
C 	C 	0.46224 0.01265 0.75720 -0.04000
C 	C 	0.44968 -0.01947 0.84113 -0.00600
C 	C 	0.44598 -0.01489 0.94273 -0.06900
C 	C 	0.42347 0.94973 1.01904 0.27600
O 	O 	0.42245 0.95307 1.11077 -0.23800
O 	O 	0.40060 0.91289 0.98286 -0.31300
C 	C 	0.45656 0.02279 0.96172 -0.01400
C 	C 	0.46526 0.05457 0.87565 -0.00900
C 	C 	0.45953 0.08756 0.88437 0.00800
C 	C 	0.48376 0.12781 0.84217 -0.03500
C 	C 	0.47769 0.15815 0.85530 -0.07100
C 	C 	0.44657 0.14739 -0.09202 0.07200
C 	C 	0.42248 0.10816 -0.05443 -0.00100
C 	C 	0.42828 0.07802 0.93582 -0.06100
C 	C 	0.39969 0.10751 0.01067 -0.03100
C 	C 	0.38347 0.07900 0.09930 -0.02300
C 	C 	0.38906 0.09368 0.19631 -0.08900
C 	C 	0.39044 0.13025 0.18603 0.00100
C 	C 	0.40200 0.15767 0.09058 -0.08700
C 	C 	0.41044 0.14662 0.00823 0.08400
N 	N 	0.43853 0.17131 -0.05647 -0.14600
C 	C 	0.46062 0.21351 -0.05712 0.07200
C 	C 	0.49075 0.22976 0.02718 -0.05600
C 	C 	0.50373 0.26788 0.04963 -0.05600
C 	C 	0.48644 0.28989 -0.01103 0.06900
N 	N 	0.49707 0.32796 0.01426 -0.14300
C 	C 	0.49083 0.33545 0.10457 0.07700
C 	C 	0.48997 0.31525 0.21129 -0.08300
C 	C 	0.49122 0.33312 0.29644 -0.01200
C 	C 	0.49105 0.36941 0.27350 -0.07400
C 	C 	0.48717 0.38656 0.16365 -0.03600
C 	C 	0.48838 0.36963 0.08203 -0.01600
C 	C 	0.49276 0.38391 0.97318 -0.02700
C 	C 	0.48658 0.41309 0.90065 -0.02800
C 	C 	0.49074 0.41767 0.78977 -0.03700
C 	C 	0.50595 0.39727 0.75961 -0.00300
C 	C 	0.50924 0.36672 0.83192 -0.08400
C 	C 	0.50027 0.35914 0.93721 0.07900
C 	C 	0.45742 0.27400 -0.09790 -0.05800
C 	C 	0.44485 0.23638 -0.12072 -0.06100
C 	C 	0.46982 0.04976 0.77488 -0.02700
H 	H 	0.43811 -0.04898 0.82299 0.04900
H 	H 	0.38391 0.89168 1.03905 0.15900
H 	H 	0.45279 0.02598 1.03965 0.02700
H 	H 	0.50783 0.13569 0.80235 0.03900
H 	H 	0.49743 0.18897 0.82854 0.04800
H 	H 	0.40918 0.04777 0.96927 0.04200
H 	H 	0.38114 0.05052 0.10509 0.00800
H 	H 	0.39170 0.14100 0.25827 0.01300
H 	H 	0.41026 0.18820 0.08936 0.05000
H 	H 	0.50213 0.21183 0.08079 0.05400
H 	H 	0.52635 0.27970 0.11603 0.04900
H 	H 	0.49187 0.28857 0.23027 0.04900
H 	H 	0.49543 0.32039 0.38040 0.01800
H 	H 	0.48912 0.41532 0.14397 0.03100
H 	H 	0.47519 0.42830 0.92620 0.03000
H 	H 	0.51048 0.40153 0.67542 0.02600
H 	H 	0.51718 0.34869 0.80491 0.05000
H 	H 	0.44330 0.29021 -0.14542 0.03700
H 	H 	0.42048 0.22353 -0.18202 0.03800
H 	H 	0.47409 0.07308 0.70604 0.03800
Mn	Mn	0.60170 0.66798 0.88948 1.20600
Mn	Mn	0.54222 0.56663 0.91081 1.28300
Mn	Mn	0.43622 0.39468 0.39413 1.20600
Mn	Mn	0.50832 0.49114 0.40994 1.28100
Mn	Mn	0.51652 0.52636 0.65575 1.26700
C 	C 	0.52851 0.65448 0.96653 0.08800
N 	N 	0.54890 0.64129 0.93732 -0.25700
N 	N 	0.52494 0.60309 0.93202 -0.19600
N 	N 	0.49096 0.59272 0.95307 -0.05300
N 	N 	0.49228 0.62405 0.97533 -0.08200
N 	N 	0.46084 0.51641 0.89881 -0.11000
N 	N 	0.48950 0.52932 0.84554 -0.21100
N 	N 	0.47727 0.51565 0.75041 -0.19500
N 	N 	0.43912 0.49408 0.73769 -0.09900
C 	C 	0.42975 0.49476 0.83325 0.11700
C 	C 	0.59102 0.50375 0.90430 0.11600
N 	N 	0.55908 0.53200 0.88595 -0.20200
N 	N 	0.58371 0.52409 0.95608 -0.09100
N 	N 	0.54315 0.58584 0.67263 -0.23000
N 	N 	0.55690 0.59839 0.76854 -0.20300
N 	N 	0.57807 0.63732 0.75837 -0.20900
N 	N 	0.57767 0.65195 0.65386 -0.12100
N 	N 	0.55030 0.51677 0.79539 -0.18600
N 	N 	0.57065 0.49909 0.80292 -0.09200
C 	C 	0.55514 0.61988 0.59993 0.11400
N 	N 	0.49176 0.41242 0.38821 -0.25700
N 	N 	0.51970 0.44822 0.40842 -0.19400
N 	N 	0.55285 0.45379 0.39545 -0.05400
N 	N 	0.54714 0.42176 0.36373 -0.08500
N 	N 	0.58922 0.52662 0.49001 -0.09800
N 	N 	0.55557 0.51730 0.50947 -0.21100
N 	N 	0.55939 0.53949 0.57715 -0.20100
N 	N 	0.59596 0.56468 0.60362 -0.09700
N 	N 	0.45176 0.53499 0.47608 -0.09200
N 	N 	0.48468 0.53407 0.50422 -0.18400
N 	N 	0.49535 0.53292 0.41490 -0.19500
N 	N 	0.47368 0.53847 0.32798 -0.09800
N 	N 	0.48949 0.46727 0.63475 -0.22900
N 	N 	0.47936 0.45836 0.53451 -0.20500
N 	N 	0.45254 0.42114 0.53157 -0.21000
N 	N 	0.44497 0.40383 0.63207 -0.12100
Cl	Cl	0.60255 0.61182 0.97636 -0.75200
Cl	Cl	0.45290 0.45620 0.30238 -0.78500
C 	C 	0.50892 0.39633 0.35655 0.09800
C 	C 	0.61455 0.55613 0.54903 0.11800
C 	C 	0.44547 0.53809 0.36347 0.11200
C 	C 	0.46970 0.43200 0.69842 0.10800
Mn	Mn	1.02340 0.63191 0.81316 1.20400
Mn	Mn	1.01951 0.54244 0.84335 1.27700
Mn	Mn	-0.01136 0.38340 0.39741 1.23100
Mn	Mn	0.00988 0.48094 0.34152 1.27600
Mn	Mn	0.01620 0.51490 0.58761 1.26700
C 	C 	0.94645 0.57091 0.90713 0.10500
N 	N 	0.97910 0.58047 0.87295 -0.26300
N 	N 	0.97685 0.54625 0.87679 -0.20300
N 	N 	0.94425 0.51651 0.90930 -0.05700
N 	N 	0.92461 0.53107 0.92979 -0.08400
N 	N 	0.95972 0.46074 0.86321 -0.11100
N 	N 	0.98250 0.49004 0.79606 -0.21300
N 	N 	0.98036 0.47786 0.70606 -0.18900
N 	N 	0.95489 0.43891 0.71196 -0.09600
C 	C 	0.94215 0.42897 0.81130 0.11500
C 	C 	0.11750 0.55570 0.79809 0.11700
N 	N 	0.06067 0.53831 0.80557 -0.20600
N 	N 	0.09418 0.55058 0.86548 -0.09900
N 	N 	1.00675 0.55966 0.59969 -0.23000
N 	N 	1.01576 0.57240 0.69463 -0.20100
N 	N 	1.01523 0.60561 0.68291 -0.21200
N 	N 	1.00347 0.61463 0.58018 -0.12400
N 	N 	0.06253 0.53516 0.70648 -0.19400
N 	N 	0.09860 0.54808 0.69651 -0.09500
C 	C 	0.99736 0.58564 0.52748 0.11000
N 	N 	0.03791 0.42787 0.34286 -0.25200
N 	N 	0.04696 0.46545 0.32360 -0.19900
N 	N 	0.08265 0.48847 0.30204 -0.05600
N 	N 	0.09745 0.46572 0.30658 -0.08900
N 	N 	0.07642 0.56158 0.31953 -0.11000
N 	N 	0.05155 0.53405 0.38548 -0.20800
N 	N 	0.05190 0.54949 0.46744 -0.19100
N 	N 	0.07857 0.58775 0.45923 -0.09800
N 	N 	0.93398 0.48417 0.47322 -0.09500
N 	N 	0.97004 0.49568 0.46712 -0.19400
N 	N 	0.97309 0.49392 0.36771 -0.20600
N 	N 	0.94035 0.48322 0.30468 -0.09500
N 	N 	0.02598 0.47080 0.57900 -0.23600
N 	N 	0.00836 0.45204 0.49404 -0.20100
N 	N 	0.00389 0.41621 0.51670 -0.20800
N 	N 	0.02185 0.41181 0.61477 -0.11700
Cl	Cl	0.05997 0.60350 0.89553 -0.78500
Cl	Cl	-0.03711 0.42053 0.29611 -0.77200
C 	C 	0.06944 0.42803 0.33392 0.11300
C 	C 	0.09354 0.59483 0.36581 0.11200
C 	C 	0.91615 0.47748 0.36995 0.11900
C 	C 	0.03623 0.44624 0.65419 0.11400
Mn	Mn	0.37669 0.00110 0.36099 1.20700
Mn	Mn	0.46489 0.01784 0.33288 1.28200
Mn	Mn	0.66562 1.01774 0.79560 1.22700
Mn	Mn	0.57376 0.98520 0.83365 1.27700
Mn	Mn	0.51732 -0.00211 0.58510 1.27000
C 	C 	0.41982 0.09005 0.27359 0.09700
N 	N 	0.41849 0.05498 0.30574 -0.26000
N 	N 	0.45322 0.06200 0.30559 -0.19600
N 	N 	0.47668 0.10034 0.28061 -0.05200
N 	N 	0.45656 0.11860 0.25985 -0.08500
N 	N 	0.54066 0.08413 0.31513 -0.10900
N 	N 	0.51910 0.05474 0.38448 -0.20900
N 	N 	0.54043 0.04619 0.46763 -0.19200
N 	N 	0.57733 0.06982 0.45304 -0.09600
C 	C 	0.57686 0.09382 0.35707 0.11400
C 	C 	0.46446 0.91526 0.37695 0.12200
N 	N 	0.47611 0.97332 0.36847 -0.19800
N 	N 	0.46038 0.94450 0.30914 -0.08100
N 	N 	0.46978 0.00396 0.57331 -0.22900
N 	N 	0.44842 0.00381 0.47874 -0.20300
N 	N 	0.41613 0.00074 0.49041 -0.21100
N 	N 	0.41591 0.00132 0.59331 -0.12200
N 	N 	0.48949 0.96243 0.46728 -0.20000
N 	N 	0.48085 0.92519 0.47753 -0.10000
C 	C 	0.44940 0.00361 0.64474 0.12100
N 	N 	0.62878 0.96029 0.84621 -0.24900
N 	N 	0.59264 0.94700 0.85352 -0.19700
N 	N 	0.57587 0.90927 0.89610 -0.05700
N 	N 	0.60202 0.89816 0.92261 -0.09100
N 	N 	0.50098 0.91289 0.85581 -0.11200
N 	N 	0.52020 0.94377 0.78556 -0.20900
N 	N 	0.49653 0.94955 0.70433 -0.19400
N 	N 	0.46041 0.92173 0.71931 -0.09800
N 	N 	0.54924 0.07088 0.69026 -0.09800
N 	N 	0.54361 0.03454 0.70171 -0.19600
N 	N 	0.55652 0.02448 0.80194 -0.20100
N 	N 	0.57071 0.05334 0.86002 -0.09100
N 	N 	0.56502 0.99154 0.59794 -0.22900
N 	N 	0.58973 1.00301 0.68534 -0.20600
N 	N 	0.62432 1.01356 0.66908 -0.20800
N 	N 	0.62286 1.00662 0.57153 -0.11800
Cl	Cl	0.40186 -0.02256 0.27740 -0.75200
Cl	Cl	0.63457 0.03133 0.88890 -0.76000
C 	C 	0.63561 0.93083 0.89571 0.09700
C 	C 	0.46389 0.89889 0.81523 0.11400
C 	C 	0.56537 0.08167 0.79073 0.12100
C 	C 	0.58556 0.99127 0.52719 0.11300
