data_crystal

_cell_length_a 32.32850
_cell_length_b 31.12360
_cell_length_c 10.73810
_cell_angle_alpha 89.89720
_cell_angle_beta  97.97640
_cell_angle_gamma 116.33710

_symmetry_space_group_name_	'P 1'
_symmetry_space_group_name_H-M	'P 1'

loop_
_symmetry_equiv_pos_as_xyz
  x,y,z

loop_
_atom_site_label
_atom_site_type_symbol
_atom_site_fract_x
_atom_site_fract_y
_atom_site_fract_z
_atom_site_charge
C 	C 	0.44183 0.52636 0.15615 0.00600
C 	C 	0.45534 0.52958 0.03441 -0.01700
C 	C 	0.42557 0.50040 -0.07279 0.00500
C 	C 	0.37853 0.47151 -0.05948 -0.06300
C 	C 	0.36370 0.46897 0.06067 0.03100
C 	C 	0.31304 0.44014 0.07630 -0.08400
C 	C 	0.29461 0.47203 0.13620 -0.09100
C 	C 	0.24557 0.44540 0.16665 0.03400
C 	C 	0.23222 0.46629 0.26121 -0.05800
C 	C 	0.18531 0.44580 0.27938 -0.05600
C 	C 	0.15435 0.40245 0.21223 -0.08100
C 	C 	0.16298 0.39658 0.09212 0.02900
C 	C 	0.13312 0.40987 -0.00352 -0.01000
C 	C 	0.14828 0.45958 0.97794 -0.01000
C 	C 	0.19553 0.49223 -0.02111 -0.02900
C 	C 	0.21022 0.54132 -0.01059 -0.01900
C 	C 	0.17768 0.55878 0.99130 -0.03200
C 	C 	0.12988 0.52733 0.96781 -0.03900
C 	C 	0.11483 0.47745 0.95533 0.03300
C 	C 	0.07091 0.44656 0.88801 -0.07100
C 	C 	0.05336 0.39705 0.91292 0.03700
C 	C 	0.00765 0.36391 0.86063 -0.05700
C 	C 	-0.00906 0.31503 0.87869 -0.02300
C 	C 	0.02035 0.29782 0.94288 -0.03400
C 	C 	0.06708 0.32915 0.98521 -0.05400
C 	C 	0.08458 0.37879 0.96832 -0.01500
C 	C 	0.20960 0.40994 0.07939 -0.08700
C 	C 	0.39633 0.49425 0.16818 -0.05900
H 	H 	0.49081 0.55399 0.02282 0.00800
H 	H 	0.35340 0.45218 -0.14184 0.03800
H 	H 	0.29193 0.42451 -0.01731 0.03400
H 	H 	0.30974 0.41027 0.13718 0.03200
H 	H 	0.31780 0.49063 0.22520 0.04300
H 	H 	0.29609 0.50038 0.07160 0.04600
H 	H 	0.25697 0.50002 0.31159 0.03500
H 	H 	0.11803 0.38708 0.22503 -0.00000
H 	H 	0.22121 0.48064 -0.03563 0.03300
H 	H 	0.24693 0.56573 -0.00524 0.03100
H 	H 	0.19041 0.59686 1.00450 0.04000
H 	H 	0.10483 0.54164 0.95809 0.02900
H 	H 	-0.01461 0.37522 0.80062 0.05500
H 	H 	-0.04463 0.29026 0.83998 0.03200
H 	H 	0.00743 0.25974 0.95506 0.02400
H 	H 	0.08974 0.31410 0.02705 0.03200
H 	H 	0.21687 0.40255 -0.01126 0.03600
H 	H 	0.38631 0.48896 0.26126 0.04400
C 	C 	0.90979 0.39522 1.01663 -0.01700
C 	C 	0.92019 0.39848 0.14781 -0.00500
C 	C 	0.88596 0.38613 0.22810 -0.00400
C 	C 	0.83861 0.36471 0.17083 -0.06000
C 	C 	0.82710 0.35911 0.03623 0.03900
C 	C 	0.77695 0.33563 -0.03154 -0.07500
C 	C 	0.76717 0.29373 -0.13003 -0.09200
C 	C 	0.73677 0.24450 -0.08952 0.06700
C 	C 	0.70045 0.20743 0.82486 -0.08800
C 	C 	0.67269 0.16254 0.87038 0.01800
C 	C 	0.68038 0.15788 1.00095 -0.08100
C 	C 	0.71838 0.19170 0.08149 0.06300
C 	C 	0.72368 0.18062 0.21534 -0.03600
C 	C 	0.72649 0.13703 0.23759 0.00900
C 	C 	0.75607 0.12477 0.17649 -0.03800
C 	C 	0.75426 0.07920 0.18435 -0.02300
C 	C 	0.72246 0.04493 0.25124 -0.01000
C 	C 	0.69231 0.05605 0.31090 -0.05600
C 	C 	0.69429 0.10231 0.30639 0.02400
C 	C 	0.66246 0.11372 0.35932 -0.05500
C 	C 	0.66927 0.16190 0.36633 0.02800
C 	C 	0.64243 0.17599 0.43513 -0.04800
C 	C 	0.64596 0.22227 0.43062 -0.02200
C 	C 	0.67626 0.25533 0.35830 -0.03000
C 	C 	0.70339 0.24235 0.29084 -0.04200
C 	C 	0.70047 0.19576 0.29418 0.00800
C 	C 	0.74734 0.23451 0.03553 -0.10000
C 	C 	0.86313 0.37682 0.96146 -0.06800
H 	H 	0.95677 0.41363 0.18892 0.00900
H 	H 	0.81137 0.35185 0.22956 0.04200
H 	H 	0.75210 0.32334 0.03777 0.04300
H 	H 	0.77060 0.36386 0.91794 0.03100
H 	H 	0.75074 0.29955 0.77773 0.03900
H 	H 	0.80026 0.29352 -0.14670 0.05500
H 	H 	0.69536 0.21304 0.72541 0.05200
H 	H 	0.65759 0.12525 1.04087 0.05000
H 	H 	0.78022 0.15031 0.12114 0.04500
H 	H 	0.77686 0.07007 0.13605 0.03700
H 	H 	0.72065 1.00935 0.25480 0.02000
H 	H 	0.66739 0.02815 0.35951 0.04500
H 	H 	0.61802 0.15114 0.49116 0.05200
H 	H 	0.62475 0.23239 0.48227 0.02900
H 	H 	0.67841 0.29103 0.35363 0.03000
H 	H 	0.72651 0.26894 0.23582 0.03800
H 	H 	0.77692 0.26078 0.09876 0.05800
H 	H 	0.85458 0.37641 0.86002 0.04600
C 	C 	0.88614 0.50109 0.49214 -0.02400
C 	C 	0.90217 0.52731 0.39002 -0.02700
C 	C 	0.87950 0.50777 0.26791 -0.04400
C 	C 	0.83372 0.46991 0.25279 -0.05300
C 	C 	0.81301 0.45054 0.36038 0.03400
C 	C 	0.76136 0.41789 0.35367 -0.08600
C 	C 	0.73807 0.43638 0.44443 -0.09100
C 	C 	0.74518 0.48789 0.43441 0.05300
C 	C 	0.72867 0.50765 0.52244 -0.07300
C 	C 	0.72959 0.55292 0.50749 0.00200
C 	C 	0.75566 0.58145 0.41762 -0.06500
C 	C 	0.76610 0.56033 0.31606 0.03900
C 	C 	0.76930 0.58087 0.18618 -0.02200
C 	C 	0.75527 0.61694 0.16941 0.00200
C 	C 	0.78322 0.66287 0.22948 -0.04400
C 	C 	0.76312 0.69308 0.25010 -0.05100
C 	C 	0.71511 0.67633 0.21685 0.00600
C 	C 	0.68815 0.63165 1.15094 -0.07700
C 	C 	0.70872 0.60338 1.11235 0.02500
C 	C 	0.68552 0.56183 1.02401 -0.05600
C 	C 	0.71165 0.53634 1.00155 0.03900
C 	C 	0.69564 0.49810 0.90833 -0.06200
C 	C 	0.72456 0.47781 0.88183 -0.01100
C 	C 	0.76974 0.49488 0.94758 -0.07700
C 	C 	0.78513 0.53003 0.04628 -0.02500
C 	C 	0.75558 0.54895 1.07852 -0.03200
C 	C 	0.76114 0.51351 0.32937 -0.08200
C 	C 	0.84109 0.46345 0.47809 -0.04600
H 	H 	0.93700 0.55714 0.40365 0.03400
H 	H 	0.81538 0.45401 0.15960 0.03300
H 	H 	0.74285 0.41302 0.25560 0.04500
H 	H 	0.75695 0.38185 0.38119 0.04100
H 	H 	0.69990 0.41233 0.42886 0.04400
H 	H 	0.75118 0.43296 0.54339 0.04100
H 	H 	0.70852 0.48463 0.58969 0.04400
H 	H 	0.75549 0.61592 0.41049 0.05000
H 	H 	0.81934 0.67340 0.26912 0.02600
H 	H 	0.78397 0.72766 0.30111 0.02600
H 	H 	0.69846 0.69771 1.24303 0.01500
H 	H 	0.65131 0.61846 1.14266 0.07200
H 	H 	0.66084 0.48281 0.85602 0.05500
H 	H 	0.71206 0.44929 0.80819 0.02200
H 	H 	0.79243 0.47992 0.92429 0.00400
H 	H 	0.81998 0.54238 0.09841 -0.02500
H 	H 	0.76546 0.49489 0.25261 0.05900
H 	H 	0.82720 0.44592 0.56056 0.04100
C 	C 	0.42399 0.89083 0.97255 -0.00700
C 	C 	0.44226 0.88985 0.10055 -0.02200
C 	C 	0.41327 0.86636 0.19021 -0.00200
C 	C 	0.36585 0.83616 0.14299 -0.06000
C 	C 	0.34823 0.83203 0.01221 0.04800
C 	C 	0.29677 0.80320 -0.03605 -0.07800
C 	C 	0.28465 0.75123 -0.08200 -0.08800
C 	C 	0.23818 0.71532 -0.04959 0.06400
C 	C 	0.20077 0.68432 0.85680 -0.08900
C 	C 	0.15788 0.65234 0.89333 0.01600
C 	C 	0.15351 0.65273 1.02167 -0.08000
C 	C 	0.18921 0.68405 0.11260 0.05900
C 	C 	0.17757 0.68627 0.24029 -0.03700
C 	C 	0.18824 0.65876 0.33194 0.00700
C 	C 	0.23006 0.65410 0.34192 -0.04100
C 	C 	0.23920 0.62533 0.43054 -0.02900
C 	C 	0.20636 0.59968 0.50751 -0.02000
C 	C 	0.16421 0.60256 0.49599 -0.04900
C 	C 	0.15455 0.63215 0.40896 0.02900
C 	C 	0.11043 0.63246 0.39017 -0.05600
C 	C 	0.10500 0.66869 0.32176 0.02300
C 	C 	0.06444 0.67528 0.31727 -0.05100
C 	C 	0.05839 0.70938 0.24242 -0.01700
C 	C 	0.09238 0.73706 0.17044 -0.02400
C 	C 	0.13253 0.73067 0.17247 -0.04000
C 	C 	0.13952 0.69668 0.24834 0.00800
C 	C 	0.23216 0.71377 0.07817 -0.10000
C 	C 	0.37737 0.86055 0.92860 -0.06900
H 	H 	0.47810 0.91497 0.13696 0.04600
H 	H 	0.34162 0.82002 0.20908 0.04500
H 	H 	0.27684 0.80464 0.03887 0.04600
H 	H 	0.28601 0.82082 0.88433 0.03700
H 	H 	0.28465 0.74973 0.81457 0.04100
H 	H 	0.31175 0.74082 -0.03711 0.05000
H 	H 	0.20469 0.68606 0.75800 0.05200
H 	H 	0.12072 0.62895 1.05205 0.04000
H 	H 	0.25626 0.67316 0.28321 0.03900
H 	H 	0.27164 0.62249 0.43877 0.03200
H 	H 	0.21335 0.57711 0.57562 0.02700
H 	H 	0.13903 0.58124 0.55471 0.05300
H 	H 	0.03763 0.65449 0.37271 0.04500
H 	H 	0.02721 0.71433 0.24027 0.02600
H 	H 	0.08737 0.76323 0.11194 0.03400
H 	H 	0.15812 0.75230 0.11441 0.04300
H 	H 	0.26028 0.73723 0.14999 0.05200
H 	H 	0.36309 0.86144 0.83169 0.04800
C 	C 	0.54646 0.88924 0.44353 -0.01000
C 	C 	0.56337 0.89725 0.32483 -0.05200
C 	C 	0.54774 0.85845 0.23128 0.01800
C 	C 	0.51705 0.81238 0.26299 -0.07700
C 	C 	0.50367 0.80289 0.38213 0.04500
C 	C 	0.47504 0.75113 0.41453 -0.09000
C 	C 	0.50054 0.73004 0.51192 -0.09300
C 	C 	0.53637 0.71667 0.46774 0.05400
C 	C 	0.54009 0.67420 0.50038 -0.07600
C 	C 	0.57426 0.66361 0.45634 0.00800
C 	C 	0.59335 0.68752 0.35157 -0.06800
C 	C 	0.58630 0.72748 0.31421 0.04100
C 	C 	0.57892 0.73763 0.18037 -0.01800
C 	C 	0.53190 0.72205 0.12186 0.00100
C 	C 	0.49361 0.68507 0.16743 -0.04200
C 	C 	0.44793 0.67727 0.12265 -0.03000
C 	C 	0.43976 0.70652 0.03406 -0.02600
C 	C 	0.47668 0.73948 -0.02159 -0.03300
C 	C 	0.52264 0.74566 0.01766 0.03100
C 	C 	0.55721 0.76608 -0.05955 -0.08100
C 	C 	0.60410 0.78598 0.00007 -0.01200
C 	C 	0.64001 0.81427 0.93261 -0.23400
C 	C 	0.68660 0.83087 -0.01300 -0.05900
C 	C 	0.69783 0.81942 0.10890 -0.08700
C 	C 	0.66258 0.79013 0.17628 -0.05700
C 	C 	0.61529 0.77217 0.12206 -0.03500
C 	C 	0.56757 0.74697 0.39352 -0.09900
C 	C 	0.51642 0.84167 0.46869 -0.06000
H 	H 	0.58865 0.93278 0.30599 0.03700
H 	H 	0.50318 0.78289 0.19489 0.05900
H 	H 	0.44445 0.74986 0.45340 0.04600
H 	H 	0.45987 0.72684 0.32831 0.05000
H 	H 	0.51764 0.75578 0.59529 0.04800
H 	H 	0.47258 0.69627 0.53967 0.05600
H 	H 	0.52038 0.65258 0.56942 0.05700
H 	H 	0.61543 0.67716 0.30496 0.06000
H 	H 	0.49884 0.66251 0.23856 0.04900
H 	H 	0.41901 0.64981 0.16080 0.03300
H 	H 	0.40479 0.70301 0.00662 0.03600
H 	H 	0.46954 0.75943 0.90290 0.04100
H 	H 	0.63179 0.82222 0.83642 -0.01400
H 	H 	0.71402 0.85171 0.93309 -0.02400
H 	H 	0.73410 0.83193 0.14971 0.02500
H 	H 	0.67259 0.78016 0.26825 0.03400
H 	H 	0.57014 0.78190 0.37732 0.05600
H 	H 	0.50666 0.83415 0.56206 0.04700
C 	C 	0.52706 0.40082 -0.05679 -0.03900
C 	C 	0.53284 0.42309 -0.17264 -0.01400
C 	C 	0.49734 0.40434 0.72179 -0.03500
C 	C 	0.45777 0.36001 0.73240 -0.05800
C 	C 	0.45325 0.33694 -0.15352 0.02300
C 	C 	0.41969 0.28460 -0.14539 -0.08200
C 	C 	0.44758 0.25484 -0.13052 -0.08600
C 	C 	0.42921 0.21247 -0.04895 0.04100
C 	C 	0.45320 0.21529 0.07562 -0.07200
C 	C 	0.44496 0.17278 0.13853 -0.04300
C 	C 	0.40945 0.12961 0.07973 -0.09500
C 	C 	0.40075 0.12609 -0.05083 0.06400
C 	C 	0.41806 0.09473 0.89214 -0.05100
C 	C 	0.38909 0.04483 0.86658 0.01200
C 	C 	0.34078 0.02470 0.87172 -0.05600
C 	C 	0.31149 -0.02288 0.82831 -0.01500
C 	C 	0.32946 0.94940 0.77605 -0.04600
C 	C 	0.37712 -0.03146 0.77087 -0.03600
C 	C 	0.40822 0.01514 0.82304 0.01800
C 	C 	0.45630 0.03576 0.80835 -0.05800
C 	C 	0.48526 0.07887 0.88028 0.01300
C 	C 	0.53358 0.09427 0.90927 -0.04300
C 	C 	0.56370 0.14285 0.93820 -0.02700
C 	C 	0.54681 0.17670 0.92740 -0.01800
C 	C 	0.49895 0.16156 0.90463 -0.04900
C 	C 	0.46711 0.11221 0.89337 0.02000
C 	C 	0.40270 0.16650 0.88806 -0.11700
C 	C 	0.48602 0.35992 -0.04728 -0.06600
H 	H 	0.56577 0.45252 -0.18291 0.04600
H 	H 	0.43226 0.34159 0.64962 0.02700
H 	H 	0.40092 0.28102 -0.06380 0.01500
H 	H 	0.39305 0.27075 -0.23162 0.02900
H 	H 	0.44890 0.24255 -0.22644 0.03400
H 	H 	0.48491 0.27744 0.90796 0.03500
H 	H 	0.48155 0.24910 0.11630 0.02100
H 	H 	0.40303 0.09657 0.12400 0.01000
H 	H 	0.32503 0.04602 0.90425 0.02800
H 	H 	0.27437 0.96225 0.83039 0.01700
H 	H 	0.30618 0.91336 0.73613 0.03300
H 	H 	0.38894 0.94740 0.72065 0.04300
H 	H 	0.54804 0.06909 0.90951 0.02600
H 	H 	0.60027 0.15490 0.96576 0.03900
H 	H 	0.57060 0.21470 0.94301 0.03000
H 	H 	0.48826 0.18929 0.89469 0.04100
H 	H 	0.39300 0.16314 0.78656 0.03200
H 	H 	0.48186 0.34236 0.04057 -0.07600
Mn	Mn	0.63855 0.72609 0.88453 1.23100
Mn	Mn	0.55452 0.60927 0.85959 1.28200
Mn	Mn	0.48415 0.38773 0.21059 1.22100
Mn	Mn	0.56221 0.50496 0.29508 1.28500
Mn	Mn	0.55616 0.53903 0.60535 1.26100
C 	C 	0.54631 0.73373 0.82724 0.09500
N 	N 	0.56992 0.70747 0.83284 -0.24400
N 	N 	0.53803 0.66252 0.81856 -0.19600
N 	N 	0.49645 0.65993 0.78174 -0.05400
N 	N 	0.50070 0.70413 0.78299 -0.09300
N 	N 	0.46191 0.55939 0.78413 -0.11600
N 	N 	0.49905 0.56894 0.73132 -0.20300
N 	N 	0.49824 0.52927 0.68909 -0.19500
N 	N 	0.46718 0.49283 0.74461 -0.09700
C 	C 	0.44337 0.51262 0.80227 0.08000
C 	C 	0.63881 0.55020 0.94575 0.12600
N 	N 	0.57647 0.55667 0.88352 -0.19000
N 	N 	0.60696 0.56175 0.98420 -0.11000
N 	N 	0.58347 0.61335 0.62693 -0.23500
N 	N 	0.59821 0.63321 0.74083 -0.20800
N 	N 	0.62961 0.67831 0.74293 -0.20600
N 	N 	0.63466 0.68984 0.62618 -0.11800
N 	N 	0.58725 0.53926 0.78615 -0.19700
N 	N 	0.62722 0.53700 0.82074 -0.10100
C 	C 	0.60363 0.65021 0.55165 0.09800
N 	N 	0.55051 0.41891 0.17331 -0.25000
N 	N 	0.58390 0.45816 0.23575 -0.19200
N 	N 	0.61881 0.47680 0.16967 -0.06100
N 	N 	0.60615 0.45388 0.05694 -0.08700
N 	N 	0.65766 0.54387 0.39040 -0.10100
N 	N 	0.61759 0.53963 0.41360 -0.22300
N 	N 	0.61782 0.54818 0.53373 -0.18300
N 	N 	0.65997 0.55647 0.59546 -0.09300
N 	N 	0.47772 0.53604 0.39005 -0.09200
N 	N 	0.52141 0.54356 0.43264 -0.20000
N 	N 	0.54518 0.55487 0.34009 -0.20800
N 	N 	0.52277 0.56484 0.24294 -0.10600
N 	N 	0.53134 0.46691 0.55347 -0.23100
N 	N 	0.53106 0.45873 0.43077 -0.19600
N 	N 	0.50513 0.41299 0.39521 -0.21500
N 	N 	0.48860 0.38877 0.49230 -0.12700
Cl	Cl	0.61350 0.66193 1.00175 -0.78200
Cl	Cl	0.49351 0.46129 0.16582 -0.76300
C 	C 	0.56242 0.41964 0.05762 0.09900
C 	C 	0.68427 0.55446 0.50248 0.10500
C 	C 	0.47939 0.54925 0.26781 0.10600
C 	C 	0.50522 0.42160 0.59225 0.10900
Mn	Mn	0.90710 0.57046 0.96605 1.20800
Mn	Mn	1.00161 0.55122 0.93992 1.27900
Mn	Mn	0.10581 0.39372 0.46875 1.21600
Mn	Mn	0.03239 0.44454 0.39029 1.28100
Mn	Mn	0.00233 0.49484 0.64918 1.26700
C 	C 	0.91230 0.50634 1.19024 0.09500
N 	N 	0.92275 0.52531 1.07813 -0.25700
N 	N 	0.96154 0.52244 1.06834 -0.20700
N 	N 	0.97638 0.50657 1.16960 -0.07300
N 	N 	0.94570 0.49500 1.24633 -0.09400
N 	N 	0.98813 0.45749 1.00163 -0.11100
N 	N 	1.00477 0.48689 0.91355 -0.19900
N 	N 	0.98326 0.46269 0.80459 -0.21300
N 	N 	0.94501 0.42327 0.81839 -0.10300
C 	C 	0.94904 0.42027 0.94470 0.10300
C 	C 	0.11298 0.62428 0.80792 0.09400
N 	N 	0.04129 0.58260 0.81532 -0.20700
N 	N 	0.07574 0.62543 0.84615 -0.09500
N 	N 	0.95101 0.51939 0.67767 -0.21500
N 	N 	0.94966 0.53101 0.79700 -0.20100
N 	N 	0.91337 0.53856 0.80831 -0.21100
N 	N 	0.88785 0.53164 0.69784 -0.12000
N 	N 	0.05402 0.55604 0.75240 -0.19700
N 	N 	0.09967 0.58049 0.74690 -0.09400
C 	C 	0.91019 0.51888 0.61841 0.11600
N 	N 	0.12459 0.45248 0.37309 -0.25800
N 	N 	0.09699 0.47242 0.33627 -0.18500
N 	N 	0.11811 0.50767 0.26434 -0.05000
N 	N 	0.15927 0.50939 0.25180 -0.08000
N 	N 	0.06374 0.54606 0.34405 -0.10600
N 	N 	0.03543 0.51118 0.40530 -0.19800
N 	N 	0.02353 0.52982 0.49650 -0.20000
N 	N 	0.04478 0.57741 0.49837 -0.10000
N 	N 	0.91394 0.42698 0.45203 -0.09100
N 	N 	0.95520 0.43644 0.52115 -0.18700
N 	N 	0.97225 0.41148 0.46533 -0.18700
N 	N 	0.93936 0.37753 0.38689 -0.09600
N 	N 	0.05199 0.46685 0.65867 -0.22500
N 	N 	0.06428 0.45344 0.55904 -0.21100
N 	N 	0.09153 0.43254 0.58896 -0.21400
N 	N 	0.09931 0.43135 0.70998 -0.12500
Cl	Cl	-0.01314 0.61527 0.97214 -0.75500
Cl	Cl	0.03249 0.37201 0.37134 -0.76700
C 	C 	0.16297 0.47434 0.32037 0.09300
C 	C 	0.06909 0.58686 0.40135 0.12800
C 	C 	0.90416 0.38929 0.36706 0.10000
C 	C 	0.07462 0.45170 0.75396 0.13200
Mn	Mn	0.41104 0.09425 0.37080 1.21200
Mn	Mn	0.47740 0.03810 0.32273 1.27900
Mn	Mn	0.63088 0.90862 0.92856 1.21600
Mn	Mn	0.58342 0.98406 0.90047 1.27700
Mn	Mn	0.52500 -0.00378 0.60080 1.26100
C 	C 	0.48204 0.16660 0.22563 0.07500
N 	N 	0.46974 0.12830 0.29613 -0.25700
N 	N 	0.49801 0.10881 0.28464 -0.18800
N 	N 	0.53071 0.13667 0.21991 -0.05200
N 	N 	0.52203 0.17325 0.18398 -0.08200
N 	N 	0.57711 0.07593 0.30585 -0.11000
N 	N 	0.54310 0.04730 0.36502 -0.21200
N 	N 	0.55978 0.03013 0.46097 -0.20300
N 	N 	0.60569 0.04811 0.46964 -0.10200
C 	C 	0.61576 0.07592 0.37133 0.12400
C 	C 	0.42469 0.89698 0.30907 0.10400
N 	N 	0.45221 0.96959 0.37303 -0.19600
N 	N 	0.42109 0.93735 0.28809 -0.09500
N 	N 	0.48745 0.03814 0.59592 -0.22500
N 	N 	0.47700 0.05735 0.49319 -0.20800
N 	N 	0.44902 0.07677 0.50965 -0.21300
N 	N 	0.43839 0.07015 0.62245 -0.12400
N 	N 	0.47208 0.95007 0.45638 -0.18800
N 	N 	0.45822 0.90463 0.41283 -0.09400
C 	C 	0.46123 0.04595 0.67605 0.12700
N 	N 	0.58446 0.90597 1.04949 -0.23700
N 	N 	0.55743 0.92188 0.98433 -0.21900
N 	N 	0.51542 0.88631 0.95169 -0.06200
N 	N 	0.51167 0.84973 1.01877 -0.09300
N 	N 	0.49487 0.96236 0.95339 -0.12200
N 	N 	0.51977 0.98017 0.86369 -0.21600
N 	N 	0.49417 0.96358 0.75261 -0.20000
N 	N 	0.45262 0.92833 0.76715 -0.09700
N 	N 	0.60237 0.09922 0.71356 -0.09200
N 	N 	0.58123 0.05128 0.72169 -0.18400
N 	N 	0.60757 0.04030 0.80626 -0.20900
N 	N 	0.64643 0.07765 0.85052 -0.09000
N 	N 	0.56038 0.95111 0.62646 -0.21400
N 	N 	0.57620 0.94679 0.74571 -0.20700
N 	N 	0.59609 0.91794 0.75637 -0.20000
N 	N 	0.59558 0.90216 0.64245 -0.11300
Cl	Cl	0.40270 0.02701 0.27239 -0.76900
Cl	Cl	0.65609 -0.01163 0.95228 -0.77100
C 	C 	0.55332 0.86445 1.09316 0.05100
C 	C 	0.45405 0.92864 0.89544 0.10900
C 	C 	0.64368 0.11506 0.79606 0.09700
C 	C 	0.57231 0.92074 0.56071 0.10200
