data_crystal

_cell_length_a 34.93070
_cell_length_b 31.88340
_cell_length_c 10.24470
_cell_angle_alpha 78.93310
_cell_angle_beta  105.72210
_cell_angle_gamma 119.63110

_symmetry_space_group_name_	'P 1'
_symmetry_space_group_name_H-M	'P 1'

loop_
_symmetry_equiv_pos_as_xyz
  x,y,z

loop_
_atom_site_label
_atom_site_type_symbol
_atom_site_fract_x
_atom_site_fract_y
_atom_site_fract_z
_atom_site_charge
C 	C 	0.33550 0.40816 0.74492 -0.09300
N 	N 	0.33059 0.38217 -0.11985 -0.11800
C 	C 	0.29768 0.38442 -0.06079 -0.05300
C 	C 	0.31857 0.42781 0.02296 0.04500
C 	C 	0.35790 0.43863 0.12316 -0.06500
C 	C 	0.37401 0.47483 0.21413 0.01000
C 	C 	0.34897 0.49906 0.20686 -0.05000
C 	C 	0.31068 0.49000 0.10208 0.02400
C 	C 	0.28341 0.51447 0.08836 0.04300
C 	C 	0.25074 0.49970 0.16201 0.00400
N 	N 	0.22043 0.51389 0.08695 -0.09200
C 	C 	0.17552 0.49594 0.10709 0.08100
C 	C 	0.14004 0.49079 -0.00432 -0.04900
C 	C 	0.09458 0.46398 0.00862 0.00400
C 	C 	0.08567 0.44595 0.13972 -0.05500
C 	C 	0.12158 0.45475 0.25485 0.00100
C 	C 	0.16591 0.47881 0.23638 -0.08400
N 	N 	0.23414 0.53659 -0.02707 -0.04400
N 	N 	0.27209 0.53707 -0.02943 -0.07500
C 	C 	0.29577 0.45446 0.01172 -0.07100
H 	H 	0.31358 0.42585 0.70953 0.04400
H 	H 	0.32676 0.38271 0.66818 0.03600
H 	H 	0.31959 0.34561 -0.12987 0.06000
H 	H 	0.26823 0.38278 -0.14061 0.02600
H 	H 	0.28417 0.35175 0.00972 0.02300
H 	H 	0.37621 0.41882 0.12937 0.07000
H 	H 	0.36065 0.52673 0.27601 0.05500
H 	H 	0.24612 0.47472 0.25124 0.02000
H 	H 	0.14750 0.50254 0.89481 0.04800
H 	H 	0.05106 0.42548 0.15178 0.03700
H 	H 	0.19328 0.48626 0.32432 0.04600
H 	H 	0.26497 0.44599 -0.06402 0.04400
C 	C 	0.59135 0.20011 0.71735 -0.08100
N 	N 	0.56650 0.19441 0.82150 -0.13000
C 	C 	0.59457 0.21734 -0.05139 -0.04700
C 	C 	0.61553 0.18778 0.04016 0.04400
C 	C 	0.59006 0.14433 0.11092 -0.06400
C 	C 	0.61077 0.11787 0.19739 -0.01500
C 	C 	0.65767 0.13612 0.21489 -0.05800
C 	C 	0.68273 0.17912 0.14120 0.03800
C 	C 	0.73205 0.20372 0.16392 0.04400
C 	C 	0.75681 0.24767 0.21990 0.00500
N 	N 	0.79447 0.27228 0.16928 -0.09200
C 	C 	0.82754 0.32207 0.18998 0.09100
C 	C 	0.86037 0.34842 0.10841 -0.07500
C 	C 	0.89334 0.39617 0.13645 0.02400
C 	C 	0.89203 0.41685 0.24550 -0.06200
C 	C 	0.86291 0.38965 0.33562 0.01200
C 	C 	0.82878 0.34384 0.30001 -0.07500
N 	N 	0.79300 0.24454 0.08502 -0.04800
N 	N 	0.75503 0.20304 0.07802 -0.06800
C 	C 	0.66133 0.20418 0.05445 -0.06700
H 	H 	0.62621 0.23047 0.73637 0.05300
H 	H 	0.57381 0.20857 0.61651 0.05300
H 	H 	0.54633 0.15783 -0.15289 0.09700
H 	H 	0.62031 0.25489 -0.07364 0.05100
H 	H 	0.57324 0.22085 0.00428 0.04900
H 	H 	0.55449 0.13212 0.10207 0.04800
H 	H 	0.67433 0.11720 0.28519 0.04600
H 	H 	0.74455 0.26276 0.27474 0.03200
H 	H 	0.86068 0.33174 0.02628 0.07100
H 	H 	0.91923 0.45182 0.27674 0.03600
H 	H 	0.80749 0.32241 0.37209 0.05700
H 	H 	0.68091 0.23756 -0.00052 0.06000
C 	C 	0.85314 0.57432 -0.05009 -0.05400
N 	N 	0.85584 0.56090 0.09707 -0.12500
C 	C 	0.84325 0.50909 0.13332 -0.06400
C 	C 	0.84661 0.49890 0.28147 0.04900
C 	C 	0.88894 0.51226 0.36883 -0.06700
C 	C 	0.89387 0.51412 0.50759 0.00000
C 	C 	0.85544 0.50468 0.55477 -0.05600
C 	C 	0.81335 0.49152 0.46580 0.02500
C 	C 	0.77710 0.49728 0.49343 0.03400
C 	C 	0.76805 0.53498 0.43048 0.00200
N 	N 	0.72360 0.51815 0.41447 -0.09500
C 	C 	0.69846 0.54396 0.35382 0.09000
C 	C 	0.67037 0.53397 0.22229 -0.08100
C 	C 	0.63957 0.55261 0.17398 0.03000
C 	C 	0.63824 0.58101 0.26402 -0.07100
C 	C 	0.65924 0.58287 0.40351 0.00700
C 	C 	0.69475 0.57122 0.43845 -0.08100
N 	N 	0.70601 0.47300 0.46732 -0.04000
N 	N 	0.73759 0.45905 0.51308 -0.07600
C 	C 	0.80884 0.48536 0.33157 -0.07400
H 	H 	0.86251 0.61334 -0.06986 0.00100
H 	H 	0.81799 0.55352 -0.10608 0.04600
H 	H 	0.88888 0.58206 0.14783 0.06900
H 	H 	0.80873 0.48592 0.07697 0.05600
H 	H 	0.86657 0.49844 0.11443 0.06800
H 	H 	0.91866 0.52599 0.32673 0.04400
H 	H 	0.85960 0.51407 0.65422 0.05000
H 	H 	0.79061 0.56918 0.38594 0.01900
H 	H 	0.67024 0.50901 0.16357 0.06700
H 	H 	0.61213 0.59120 0.23746 0.08500
H 	H 	0.71239 0.57269 0.54360 0.05200
H 	H 	0.77695 0.47730 0.26136 0.05800
C 	C 	0.08609 0.62163 0.36523 -0.08400
N 	N 	0.11250 0.61637 0.28457 -0.11900
C 	C 	0.15943 0.62777 0.35369 -0.06500
C 	C 	0.18500 0.63012 0.25045 0.07500
C 	C 	0.16519 0.59212 1.16520 -0.09100
C 	C 	0.16755 0.60375 1.02759 0.02500
C 	C 	0.20478 0.64569 0.99303 -0.07900
C 	C 	0.23538 0.67860 0.09216 0.05400
C 	C 	0.27711 0.72032 0.05643 0.03000
C 	C 	0.31629 0.74870 0.14364 0.03500
N 	N 	0.34638 0.77885 0.06505 -0.09600
C 	C 	0.39201 0.81659 0.10678 0.10600
C 	C 	0.41105 0.82373 0.24610 -0.07700
C 	C 	0.45281 0.86327 0.29011 0.00600
C 	C 	0.47718 0.89395 0.19172 -0.05500
C 	C 	0.45889 0.88928 1.04971 -0.00400
C 	C 	0.41640 0.84980 1.00841 -0.09000
N 	N 	0.32641 0.76911 -0.06307 -0.04100
N 	N 	0.28460 0.73357 -0.07128 -0.07300
C 	C 	0.22309 0.67270 0.21831 -0.08700
H 	H 	0.06507 0.63711 0.29576 0.04400
H 	H 	0.10829 0.64770 0.44489 0.05100
H 	H 	0.09527 0.58147 0.25106 0.07500
H 	H 	0.17654 0.66328 0.39913 0.04700
H 	H 	0.15957 0.59961 0.43661 0.05700
H 	H 	0.13696 0.55869 1.19065 0.05800
H 	H 	0.20771 0.65460 0.88746 0.06000
H 	H 	0.32214 0.74641 1.25342 0.00900
H 	H 	0.39166 0.80132 0.32177 0.06400
H 	H 	0.50876 0.92504 0.22737 0.04900
H 	H 	0.40184 0.84592 0.90094 0.06800
H 	H 	0.24120 0.70178 0.28624 0.05400
C 	C 	0.69088 0.94259 0.22156 -0.09500
N 	N 	0.72579 0.97364 0.32935 -0.13000
C 	C 	0.71299 0.99003 0.42975 -0.05400
C 	C 	0.66506 0.96059 0.45276 0.03700
C 	C 	0.64093 0.98441 0.46204 -0.04600
C 	C 	0.60224 0.95938 0.51992 -0.01400
C 	C 	0.58044 0.90851 0.52150 -0.04000
C 	C 	0.59997 0.88429 0.48504 0.01300
C 	C 	0.57207 0.83437 0.44317 0.04000
C 	C 	0.58663 0.80284 0.42668 -0.00400
N 	N 	0.55083 0.76700 0.35600 -0.09700
C 	C 	0.54629 0.72195 0.33027 0.07600
C 	C 	0.51477 0.69779 0.21841 -0.11400
C 	C 	0.49496 0.64766 0.22147 -0.00800
C 	C 	0.50455 0.62112 0.34302 -0.04300
C 	C 	0.53826 0.64534 0.45431 -0.00700
C 	C 	0.56312 0.69638 0.43472 -0.07900
N 	N 	0.51609 0.77561 0.33274 -0.04400
N 	N 	0.52817 0.81666 0.38290 -0.07600
C 	C 	0.64495 0.91012 0.47262 -0.06400
H 	H 	0.67699 0.90416 0.26060 0.04800
H 	H 	0.70643 -0.05454 0.13660 -0.00200
H 	H 	0.74888 1.00454 0.28191 0.01800
H 	H 	0.73568 0.98980 0.52939 0.01900
H 	H 	0.72058 1.02849 0.40217 0.02100
H 	H 	0.65824 1.02362 0.45782 0.03700
H 	H 	0.55188 0.88678 0.56903 0.05000
H 	H 	0.61993 0.80582 0.46088 0.01400
H 	H 	0.50341 0.71772 0.13306 0.03700
H 	H 	0.48516 0.58271 0.35057 0.05700
H 	H 	0.58866 0.71673 0.51802 0.04200
H 	H 	0.66278 0.89117 0.46610 0.03800
C 	C 	0.46266 0.39512 0.89827 -0.08800
N 	N 	0.41606 0.35481 0.88137 -0.12100
C 	C 	0.40407 0.31712 0.99339 -0.09100
C 	C 	0.43831 0.29904 0.04790 0.06500
C 	C 	0.46094 0.30565 0.18215 -0.06200
C 	C 	0.50446 0.31091 0.22334 -0.03600
C 	C 	0.51943 0.29463 0.13741 -0.05500
C 	C 	0.49125 0.27689 0.01061 0.04900
C 	C 	0.50034 0.25197 0.92551 -0.00300
C 	C 	0.48318 0.20256 -0.06491 0.03100
N 	N 	0.48065 0.19000 0.81336 -0.10300
C 	C 	0.46077 0.14164 0.77122 0.03800
C 	C 	0.47404 0.13179 0.66624 -0.05600
C 	C 	0.45871 0.08357 0.63971 -0.03800
C 	C 	0.42134 0.04836 -0.30943 -0.00900
C 	C 	0.41481 0.05547 -0.18855 -0.06300
C 	C 	0.43094 0.10258 -0.15610 -0.04200
N 	N 	0.49566 0.23001 0.73282 -0.07300
N 	N 	0.50694 0.26808 0.79750 -0.09600
C 	C 	0.45161 0.28117 0.96445 -0.11400
H 	H 	0.48558 0.38883 0.98886 0.06100
H 	H 	0.46369 0.42907 0.91255 0.04000
H 	H 	0.39377 0.36901 0.85873 0.07700
H 	H 	0.39893 0.33123 1.07485 0.04900
H 	H 	0.37123 0.28609 -0.04504 0.03500
H 	H 	0.44665 0.31291 0.24856 -0.07400
H 	H 	0.55213 0.29582 0.16748 0.05000
H 	H 	0.47077 0.17819 0.02063 0.00200
H 	H 	0.49650 0.16123 0.60748 0.04600
H 	H 	0.40480 0.01207 -0.34316 0.03500
H 	H 	0.42445 0.10788 -0.06484 -0.01600
H 	H 	0.43134 0.27104 0.86377 0.04100
Mn	Mn	0.54446 0.67102 0.96615 1.21300
Mn	Mn	0.49486 0.54928 0.95137 1.28200
Mn	Mn	0.45555 0.32542 0.44837 1.22000
Mn	Mn	0.51325 0.44747 0.40988 1.28200
Mn	Mn	0.51102 0.51059 0.66836 1.25700
C 	C 	0.46445 0.62358 1.09766 0.07300
N 	N 	0.48083 0.62598 0.99011 -0.25100
N 	N 	0.45765 0.58194 0.94675 -0.19100
N 	N 	0.42318 0.55662 1.00772 -0.06300
N 	N 	0.42684 0.58149 1.10388 -0.08700
N 	N 	0.40439 0.47849 0.84813 -0.10500
N 	N 	0.44620 0.50199 0.83118 -0.22100
N 	N 	0.45146 0.48574 0.73243 -0.19300
N 	N 	0.41207 0.44993 0.68031 -0.10200
C 	C 	0.38329 0.44636 0.75314 0.13200
C 	C 	0.59813 0.53034 1.06147 0.08700
N 	N 	0.53149 0.51634 0.96858 -0.21000
N 	N 	0.55893 0.52018 1.08698 -0.11500
N 	N 	0.52198 0.58240 0.67263 -0.22100
N 	N 	0.51948 0.59246 0.79078 -0.20100
N 	N 	0.53399 0.63882 0.79672 -0.21400
N 	N 	0.54480 0.66162 0.68202 -0.11900
N 	N 	0.55019 0.51876 0.86988 -0.18900
N 	N 	0.59360 0.52990 0.92329 -0.09200
C 	C 	0.53683 0.62774 0.60158 0.10400
N 	N 	0.51851 0.35868 0.41256 -0.24700
N 	N 	0.54411 0.40574 0.42276 -0.18500
N 	N 	0.57828 0.42040 0.36308 -0.05100
N 	N 	0.57389 0.38357 0.30711 -0.07900
N 	N 	0.60325 0.51006 0.48015 -0.10600
N 	N 	0.56673 0.49552 0.52348 -0.21100
N 	N 	0.56750 0.53008 0.57995 -0.18400
N 	N 	0.60424 0.57135 0.55634 -0.09700
N 	N 	0.43344 0.50303 0.43259 -0.09400
N 	N 	0.47267 0.50208 0.47630 -0.19600
N 	N 	0.48056 0.48649 0.38125 -0.20000
N 	N 	0.44856 0.47927 0.27187 -0.10400
N 	N 	0.49611 0.43731 0.68260 -0.22800
N 	N 	0.49391 0.41645 0.57910 -0.20800
N 	N 	0.47665 0.36935 0.60067 -0.21200
N 	N 	0.46689 0.35638 0.72164 -0.11300
Cl	Cl	0.55211 0.60827 1.08216 -0.79900
Cl	Cl	0.44925 0.38722 0.30573 -0.76200
C 	C 	0.53504 0.34525 0.33159 0.09300
C 	C 	0.62656 0.55693 0.49614 0.10100
C 	C 	0.41913 0.48881 0.30371 0.11100
C 	C 	0.47888 0.39826 0.77348 0.13300
Mn	Mn	0.96569 0.64788 0.82829 1.20700
Mn	Mn	0.00288 0.56616 0.97214 1.27100
Mn	Mn	0.06396 0.36999 0.57935 1.19700
Mn	Mn	0.00225 0.42879 0.49441 1.27500
Mn	Mn	-0.00168 0.49118 0.74148 1.25500
C 	C 	0.88399 0.56430 0.89969 0.03800
N 	N 	0.92913 0.58888 0.94346 -0.25000
N 	N 	0.94216 0.55499 0.98042 -0.20700
N 	N 	0.90807 0.51304 -0.05927 -0.05100
N 	N 	0.87135 0.51756 -0.10868 -0.07700
N 	N 	0.95944 0.47192 0.09941 -0.09900
N 	N 	0.98162 0.49420 1.00192 -0.20900
N 	N 	0.97143 0.46356 0.91251 -0.19100
N 	N 	0.93813 0.42052 0.94403 -0.08900
C 	C 	0.93148 0.42675 1.06350 0.07000
C 	C 	0.12335 0.59241 0.94006 0.08900
N 	N 	0.05643 0.57404 0.92837 -0.21800
N 	N 	0.09715 0.60460 -0.01809 -0.07100
N 	N 	0.96425 0.53352 0.69636 -0.21400
N 	N 	0.97949 0.56869 0.77591 -0.19700
N 	N 	0.96673 0.60169 0.71895 -0.20600
N 	N 	0.94170 0.58930 0.59841 -0.12400
N 	N 	0.05579 0.54485 0.85149 -0.19300
N 	N 	0.09806 0.55472 0.85943 -0.09300
C 	C 	0.93880 0.54652 0.58362 0.10800
N 	N 	0.07412 0.42312 0.42292 -0.24800
N 	N 	0.05898 0.45241 0.43272 -0.21200
N 	N 	0.09244 0.49665 0.44782 -0.05900
N 	N 	0.12821 0.49835 0.42354 -0.08900
N 	N 	0.03386 0.53053 0.37638 -0.11700
N 	N 	0.01505 0.49905 0.47411 -0.20700
N 	N 	0.02320 0.52249 0.57808 -0.21300
N 	N 	0.04754 0.56960 0.55484 -0.10300
N 	N 	0.90454 0.43313 0.55204 -0.09300
N 	N 	0.94384 0.43660 0.62325 -0.19000
N 	N 	0.95017 0.40456 0.58112 -0.18800
N 	N 	0.91312 0.37368 0.50800 -0.09500
N 	N 	0.03545 0.45067 0.78188 -0.21600
N 	N 	0.03702 0.43274 0.67767 -0.21200
N 	N 	0.06067 0.40918 0.71199 -0.21000
N 	N 	0.07689 0.41066 0.84304 -0.12400
Cl	Cl	0.02806 0.64690 0.95796 -0.82500
Cl	Cl	-0.00900 0.35135 0.50546 -0.79600
C 	C 	0.11496 0.45338 0.39194 0.04300
C 	C 	0.05451 0.57421 0.42900 0.11600
C 	C 	0.88555 0.39307 0.48032 0.09600
C 	C 	0.06326 0.43774 0.88744 0.08500
Mn	Mn	0.38316 0.02396 0.15741 1.20000
Mn	Mn	0.45305 -0.02527 0.29597 1.28600
Mn	Mn	0.70311 1.04047 0.98372 1.20800
Mn	Mn	0.60442 1.04398 0.94262 1.27900
Mn	Mn	0.52949 0.01261 0.60871 1.26600
C 	C 	0.42085 0.02199 -0.07760 0.09100
N 	N 	0.42635 0.02690 0.05557 -0.25600
N 	N 	0.45370 0.00892 0.11783 -0.20600
N 	N 	0.46442 -0.00649 0.03118 -0.05700
N 	N 	0.44519 0.00168 -0.09184 -0.07800
N 	N 	0.54324 0.03814 0.22099 -0.10000
N 	N 	0.52308 0.01307 0.32361 -0.18900
N 	N 	0.54953 0.03448 0.43553 -0.20700
N 	N 	0.58753 0.07215 0.41193 -0.09400
C 	C 	0.58339 0.07390 0.27667 0.09500
C 	C 	0.45991 0.88335 0.41989 0.06500
N 	N 	0.44806 0.93510 0.47342 -0.18800
N 	N 	0.42680 0.89139 0.43056 -0.10500
N 	N 	0.47689 0.03519 0.51317 -0.20800
N 	N 	0.45659 0.02466 0.38489 -0.21400
N 	N 	0.43424 0.04844 0.32312 -0.21500
N 	N 	0.43989 0.07857 0.40492 -0.12800
N 	N 	0.48937 0.94546 0.53363 -0.21100
N 	N 	0.50003 0.91789 0.48444 -0.10800
C 	C 	0.46662 0.07185 0.52122 0.11400
N 	N 	0.65905 0.99825 1.10235 -0.26100
N 	N 	0.61946 0.99665 1.08207 -0.19400
N 	N 	0.59087 0.95423 1.13042 -0.05200
N 	N 	0.61143 0.92766 1.18417 -0.09100
N 	N 	0.52341 0.96640 1.00939 -0.10600
N 	N 	0.53842 0.99773 0.90951 -0.20700
N 	N 	0.50931 0.98357 0.79306 -0.18900
N 	N 	0.47486 0.94010 0.81758 -0.09100
N 	N 	0.56594 0.12060 0.62089 -0.10200
N 	N 	0.56816 0.08073 0.67987 -0.19100
N 	N 	0.59357 0.08996 0.80252 -0.20300
N 	N 	0.60991 0.13520 0.82655 -0.09800
N 	N 	0.58503 0.99743 0.68881 -0.21700
N 	N 	0.61286 1.01581 0.80468 -0.20500
N 	N 	0.65001 1.01205 0.82775 -0.21400
N 	N 	0.64839 0.98924 0.73259 -0.12600
Cl	Cl	0.37729 -0.05128 0.24273 -0.74900
Cl	Cl	0.67926 0.09484 0.97723 -0.77200
C 	C 	0.65389 0.95567 1.16600 0.09100
C 	C 	0.48472 0.93017 0.95528 0.11000
C 	C 	0.59263 0.15414 0.71391 0.13000
C 	C 	0.60883 0.98022 0.64552 0.11100
