data_crystal

_cell_length_a 45.30170
_cell_length_b 27.71660
_cell_length_c 14.71490
_cell_angle_alpha 90.23970
_cell_angle_beta  91.99520
_cell_angle_gamma 89.90760

_symmetry_space_group_name_	'P 1'
_symmetry_space_group_name_H-M	'P 1'

loop_
_symmetry_equiv_pos_as_xyz
  x,y,z

loop_
_atom_site_label
_atom_site_type_symbol
_atom_site_fract_x
_atom_site_fract_y
_atom_site_fract_z
_atom_site_charge
Eu	Eu	0.38204 0.76180 0.23412 1.81000
O 	O 	0.33489 0.83798 0.24166 -0.32400
C 	C 	0.35642 0.66260 0.18256 0.30500
O 	O 	0.41318 0.84262 0.13251 -0.32600
O 	O 	0.41907 0.81353 0.27486 -0.43100
O 	O 	0.43992 0.71065 0.23265 -0.30300
O 	O 	0.38236 0.65687 0.16557 -0.30200
O 	O 	0.34527 0.70891 0.19503 -0.43400
O 	O 	0.35429 0.78883 0.34966 -0.42100
C 	C 	0.33330 0.82197 0.31834 0.28400
O 	O 	0.40293 0.70672 0.33138 -0.41700
C 	C 	0.42993 0.69136 0.29939 0.31200
C 	C 	0.42948 0.83706 0.19927 0.27700
Eu	Eu	0.90317 0.75161 0.78420 1.78800
O 	O 	0.85762 0.82920 0.83830 -0.28200
C 	C 	0.86121 0.67211 0.83252 0.29900
O 	O 	0.98321 0.83499 0.77990 -0.19700
O 	O 	0.94888 0.77822 0.74609 -0.40300
O 	O 	0.94575 0.67921 0.69568 -0.28000
O 	O 	0.88576 0.65544 0.84913 -0.32800
O 	O 	0.85807 0.72160 0.81857 -0.41300
O 	O 	0.88212 0.81560 0.70926 -0.40600
C 	C 	0.86811 0.84595 0.76999 0.29200
O 	O 	0.89990 0.70512 0.65640 -0.41000
C 	C 	0.92197 0.67021 0.65835 0.27100
C 	C 	0.95922 0.81782 0.79652 0.25800
Eu	Eu	0.10134 0.25441 0.27035 1.81700
O 	O 	0.13468 0.17444 0.18817 -0.30200
C 	C 	0.16038 0.31190 0.25177 0.28300
O 	O 	0.06986 0.20927 0.09000 -0.29700
O 	O 	0.06331 0.20268 0.24142 -0.42800
O 	O 	0.04557 0.30522 0.30791 -0.33500
O 	O 	0.15533 0.30444 0.17111 -0.30700
O 	O 	0.13851 0.30537 0.31432 -0.43900
O 	O 	0.12676 0.19202 0.33547 -0.42400
C 	C 	0.13914 0.16395 0.26797 0.30100
O 	O 	0.07968 0.27118 0.40356 -0.41500
C 	C 	0.05264 0.29364 0.38563 0.31000
C 	C 	0.05378 0.19835 0.15126 0.28600
Eu	Eu	0.62451 0.24310 0.72819 1.69600
O 	O 	0.64086 0.11370 0.63812 -0.22900
C 	C 	0.65515 0.34107 0.76034 0.04400
O 	O 	0.60942 0.19890 0.90338 -0.33700
O 	O 	0.59213 0.18366 0.76014 -0.42800
O 	O 	0.58433 0.33251 0.68911 -0.31500
O 	O 	0.65852 0.30758 0.70820 -0.20100
O 	O 	0.65832 0.30242 0.70068 -0.13500
O 	O 	0.64658 0.19401 0.62597 -0.40200
C 	C 	0.65490 0.14942 0.66138 0.26000
O 	O 	0.59418 0.26525 0.60860 -0.41300
C 	C 	0.57848 0.30761 0.62250 0.28200
C 	C 	0.59370 0.17411 0.85298 0.30000
C 	C 	0.33663 0.62004 0.19210 -0.08900
O 	O 	0.31994 0.62620 0.27194 -0.14600
C 	C 	0.29958 0.58917 0.28419 0.06600
C 	C 	0.27089 0.59255 0.24517 0.03500
I 	I 	0.25722 0.65391 0.16951 -0.10000
C 	C 	0.25072 0.55509 0.25654 -0.08000
C 	C 	0.25891 0.51413 0.30713 0.05500
C 	C 	0.23743 0.47346 0.31879 -0.09200
C 	C 	0.24425 0.43084 0.25561 -0.09100
C 	C 	0.23015 0.38541 0.28917 0.05500
C 	C 	0.20389 0.36749 0.24800 -0.04800
C 	C 	0.18963 0.32781 0.28594 -0.03600
C 	C 	0.20218 0.30529 0.36324 -0.06100
C 	C 	0.22876 0.32195 0.40296 0.08800
C 	C 	0.24166 0.29720 0.48564 -0.20600
C 	C 	0.24261 0.36215 0.36602 -0.10500
C 	C 	0.28726 0.51164 0.34855 -0.08000
C 	C 	0.30744 0.54913 0.33798 0.03500
I 	I 	0.34947 0.54461 0.40486 -0.09700
H 	H 	0.35011 0.58647 0.19730 0.07700
H 	H 	0.32174 0.61777 0.13065 0.06900
H 	H 	0.22876 0.55786 0.22549 0.06100
H 	H 	0.21440 0.48581 0.30378 0.05300
H 	H 	0.23852 0.46220 0.39133 0.05400
H 	H 	0.26849 0.42485 0.25254 0.05300
H 	H 	0.23602 0.43944 0.18543 0.05100
H 	H 	0.19382 0.38576 0.18977 0.05100
H 	H 	0.19118 0.27472 0.39292 0.05300
H 	H 	0.22560 0.29854 0.54093 0.07800
H 	H 	0.24638 0.25891 0.46894 0.07600
H 	H 	0.26250 0.31462 0.51046 0.07500
H 	H 	0.26280 0.37604 0.39790 0.05700
H 	H 	0.29360 0.48063 0.38937 0.05800
C 	C 	0.86824 0.89937 0.75533 -0.08200
O 	O 	0.85404 0.91113 0.66981 -0.14100
C 	C 	0.83366 0.94936 0.67214 0.06800
C 	C 	0.80428 0.94081 0.64302 0.03900
I 	I 	0.79082 0.87163 0.59694 -0.07200
C 	C 	0.78334 0.97794 0.64485 -0.07900
C 	C 	0.79144 0.02422 0.67541 0.05600
C 	C 	0.76887 0.06426 0.67759 -0.09200
C 	C 	0.74593 0.05514 0.74992 -0.08900
C 	C 	0.72659 0.09894 0.76099 0.04600
C 	C 	0.69931 0.10236 0.71331 -0.03800
C 	C 	0.68223 0.14462 0.71802 -0.06800
C 	C 	0.69230 0.18306 0.77309 -0.03800
C 	C 	0.71917 0.17953 0.82289 0.06500
C 	C 	0.72934 0.22074 0.88240 -0.19500
C 	C 	0.73635 0.13759 0.81605 -0.09700
C 	C 	0.82100 0.03331 0.70120 -0.07900
C 	C 	0.84217 0.99658 0.69881 0.03500
I 	I 	0.88661 1.01666 0.72950 -0.10500
H 	H 	0.89170 0.91058 0.75391 0.06900
H 	H 	0.85790 0.91800 0.81366 0.07500
H 	H 	0.76079 0.97076 0.62210 0.06200
H 	H 	0.75762 0.06725 0.60948 0.05400
H 	H 	0.78004 0.09933 0.69205 0.05100
H 	H 	0.75718 0.04644 0.81625 0.05400
H 	H 	0.73220 0.02341 0.72956 0.05200
H 	H 	0.69200 0.07288 0.66956 0.05400
H 	H 	0.67925 0.21570 0.77764 -0.04200
H 	H 	0.73148 0.25385 0.84090 0.06900
H 	H 	0.71288 0.22715 0.93520 0.06300
H 	H 	0.75103 0.21310 0.91696 0.06800
H 	H 	0.75742 0.13506 0.85292 0.05400
H 	H 	0.82777 0.06924 0.72226 0.05900
C 	C 	0.15864 0.12220 0.29319 -0.08500
O 	O 	0.15037 0.08097 0.23952 -0.14100
C 	C 	0.16905 0.04138 0.25515 0.06700
C 	C 	0.19520 0.03647 0.20709 0.03600
I 	I 	0.20680 0.08715 0.10723 -0.09300
C 	C 	0.21387 -0.00300 0.22361 -0.08000
C 	C 	0.20641 0.96162 0.28664 0.05700
C 	C 	0.22693 0.91991 0.30609 -0.09200
C 	C 	0.24857 0.93266 0.38480 -0.09200
C 	C 	0.26784 0.89014 0.40997 0.05700
C 	C 	0.29074 0.87611 0.35364 -0.05200
C 	C 	0.30918 0.83700 0.37746 -0.03300
C 	C 	0.30423 0.81172 0.45809 -0.06400
C 	C 	0.28123 0.82516 0.51429 0.09000
C 	C 	0.27608 0.79713 0.59929 -0.20600
C 	C 	0.26317 0.86451 0.49019 -0.10700
C 	C 	0.17991 0.96589 0.33260 -0.07900
C 	C 	0.16120 0.00537 0.31663 0.03600
I 	I 	0.12110 0.00945 0.38562 -0.08600
H 	H 	0.15669 0.11417 0.36681 0.07400
H 	H 	0.18183 0.13276 0.28084 0.06700
H 	H 	0.23417 -0.00615 0.18723 0.06000
H 	H 	0.23931 0.91083 0.24430 0.05300
H 	H 	0.21393 0.88744 0.32370 0.05500
H 	H 	0.23591 0.94451 0.44444 0.05200
H 	H 	0.26274 0.96343 0.36542 0.05200
H 	H 	0.29432 0.89611 0.29187 0.05600
H 	H 	0.31804 0.78120 0.47718 0.06400
H 	H 	0.27124 0.75893 0.58139 0.07900
H 	H 	0.29614 0.79861 0.64480 0.07700
H 	H 	0.25717 0.81189 0.63672 0.07600
H 	H 	0.24537 0.87499 0.53349 0.05900
H 	H 	0.17384 0.93856 0.38088 0.06200
C 	C 	0.83519 0.63899 0.82269 -0.08300
O 	O 	0.81648 0.64490 0.89815 -0.14200
C 	C 	0.79514 0.60853 0.90283 0.06600
C 	C 	0.76698 0.61465 0.86133 0.03400
I 	I 	0.75547 0.67946 0.79347 -0.08400
C 	C 	0.74595 0.57777 0.86554 -0.07900
C 	C 	0.75273 0.53464 0.91144 0.05400
C 	C 	0.73029 0.49470 0.91646 -0.09000
C 	C 	0.73841 0.45226 0.85470 -0.09700
C 	C 	0.71922 0.40906 0.87154 0.06600
C 	C 	0.69655 0.39570 0.80877 -0.08600
C 	C 	0.67923 0.35491 0.82446 0.02200
C 	C 	0.68422 0.32790 0.90388 -0.10100
C 	C 	0.70661 0.34115 0.96735 0.09300
C 	C 	0.71182 0.31290 1.05323 -0.20400
C 	C 	0.72418 0.38146 0.95049 -0.11800
C 	C 	0.78060 0.52922 0.95474 -0.08100
C 	C 	0.80159 0.56603 0.95142 0.03700
I 	I 	0.84257 0.55691 0.02285 -0.10700
H 	H 	0.84346 0.60114 0.81899 0.06700
H 	H 	0.82282 0.64704 0.75791 0.06700
H 	H 	0.72436 0.58277 0.83306 0.06000
H 	H 	0.70791 0.50800 0.89538 0.05100
H 	H 	0.72922 0.48277 0.98837 0.05100
H 	H 	0.76192 0.44172 0.86688 0.05000
H 	H 	0.73591 0.46391 0.78259 0.05000
H 	H 	0.69249 0.41683 0.74782 0.05400
H 	H 	0.67045 0.29687 0.91657 0.02100
H 	H 	0.70937 0.33693 0.11309 0.06900
H 	H 	0.69586 0.28273 1.05825 0.06900
H 	H 	0.73452 0.29767 1.05483 0.07000
H 	H 	0.74168 0.39149 0.99909 0.05800
H 	H 	0.78589 0.49650 0.99190 0.05800
C 	C 	0.44584 0.65014 0.34472 -0.08800
O 	O 	0.46934 0.63406 0.28973 -0.14000
C 	C 	0.48289 0.59167 0.32117 0.06500
C 	C 	0.50918 0.59404 0.37444 0.03800
I 	I 	0.52812 0.66134 0.41150 -0.10800
C 	C 	0.52351 0.55155 0.40228 -0.08000
C 	C 	0.51180 0.50640 0.37704 0.05500
C 	C 	0.52764 0.46048 0.40344 -0.09100
C 	C 	0.51188 0.43424 0.47957 -0.09300
C 	C 	0.52241 0.38278 0.48672 0.05600
C 	C 	0.54411 0.36943 0.55239 -0.05200
C 	C 	0.55492 0.32186 0.55566 -0.03400
C 	C 	0.54336 0.28757 0.49335 -0.06400
C 	C 	0.52133 0.30037 0.42865 0.08900
C 	C 	0.50914 0.26304 0.36335 -0.20700
C 	C 	0.51103 0.34805 0.42535 -0.10700
C 	C 	0.48567 0.50423 0.32312 -0.07900
C 	C 	0.47141 0.54652 0.29439 0.03500
I 	I 	0.43345 0.54080 0.20679 -0.09000
H 	H 	0.45465 0.66197 0.41258 0.07100
H 	H 	0.42965 0.62060 0.35409 0.07900
H 	H 	0.54388 0.55380 0.44282 0.06000
H 	H 	0.55078 0.46818 0.42680 0.05100
H 	H 	0.52879 0.43710 0.34198 0.05200
H 	H 	0.48755 0.43437 0.46646 0.05300
H 	H 	0.51625 0.45377 0.54484 0.05200
H 	H 	0.55305 0.39632 0.59933 0.05500
H 	H 	0.55132 0.25068 0.49516 0.06400
H 	H 	0.52717 0.24848 0.32193 0.08000
H 	H 	0.49923 0.23305 0.40168 0.07800
H 	H 	0.49182 0.27840 0.31659 0.07500
H 	H 	0.49425 0.35835 0.37478 0.05700
H 	H 	0.47672 0.46960 0.30191 0.05800
C 	C 	0.94107 0.84051 0.86819 -0.05400
O 	O 	0.95789 0.84291 0.95247 -0.16600
C 	C 	0.96288 0.88968 -0.01342 0.07300
C 	C 	0.99198 0.90702 -0.00512 0.03600
I 	I 	0.02829 0.86297 0.96221 -0.05900
C 	C 	0.99754 0.95361 0.02783 -0.07700
C 	C 	0.97433 0.98283 0.05614 0.05700
C 	C 	0.98073 0.03120 0.09882 -0.09100
C 	C 	0.98567 0.06999 0.02683 -0.09200
C 	C 	-0.00945 0.11810 0.07280 0.05700
C 	C 	0.01882 0.13896 0.07873 -0.04800
C 	C 	0.02382 0.18017 0.13265 -0.03300
C 	C 	0.00044 0.20099 0.17907 -0.06300
C 	C 	0.97200 0.18154 0.17078 0.08900
C 	C 	0.94740 0.20379 0.22231 -0.20500
C 	C 	0.96711 0.14029 0.11713 -0.10600
C 	C 	0.94535 0.96511 0.05053 -0.07600
C 	C 	0.93951 0.91876 0.01667 0.03100
I 	I 	0.89552 0.89331 0.02153 -0.10900
H 	H 	0.92110 0.81842 0.87816 -0.06100
H 	H 	0.93389 0.87674 0.84324 0.05100
H 	H 	0.02005 0.96663 0.03356 0.06400
H 	H 	0.00063 0.02840 0.14500 0.05800
H 	H 	0.96209 0.04189 0.14187 0.05300
H 	H 	0.96610 0.07239 -0.02072 0.05600
H 	H 	1.00504 0.05990 -0.01362 0.05600
H 	H 	0.03717 0.12160 0.04628 0.05700
H 	H 	0.00445 0.23212 0.22265 0.05500
H 	H 	0.95308 0.20288 0.29632 0.07700
H 	H 	0.94415 0.24182 0.20080 0.07400
H 	H 	0.92632 0.18401 0.21003 0.07300
H 	H 	0.94531 0.12428 0.11249 0.05700
H 	H 	0.92733 0.98700 0.07422 0.06100
C 	C 	0.57682 0.13296 0.89081 -0.08900
O 	O 	0.55538 0.15089 0.95146 -0.14500
C 	C 	0.54084 0.11412 -0.00314 0.06300
C 	C 	0.51536 0.09247 -0.04235 0.03200
I 	I 	0.49676 0.11645 0.83184 -0.09800
C 	C 	0.50174 0.05444 0.00221 -0.08000
C 	C 	0.51301 0.03824 0.08670 0.05400
C 	C 	0.49903 0.99605 0.13279 -0.09100
C 	C 	0.50746 0.94852 0.08651 -0.09200
C 	C 	0.49862 0.90608 0.14299 0.05600
C 	C 	0.46898 0.89146 0.14343 -0.05300
C 	C 	0.46041 0.85341 0.19937 -0.03300
C 	C 	0.48179 0.82978 0.25441 -0.06400
C 	C 	0.51154 0.84330 0.25280 0.09200
C 	C 	0.53404 0.81666 0.31069 -0.20900
C 	C 	0.51987 0.88155 0.19715 -0.10800
C 	C 	0.53775 0.06120 0.12720 -0.08100
C 	C 	0.55163 0.09890 0.08269 0.03500
I 	I 	0.58919 0.13170 0.14611 -0.10200
H 	H 	0.59274 0.10850 0.92715 0.07000
H 	H 	0.56575 0.11260 0.83413 0.07800
H 	H 	0.48241 0.03743 -0.02905 0.05900
H 	H 	0.47462 1.00050 0.13096 0.05100
H 	H 	0.50651 0.99493 0.20560 0.05300
H 	H 	0.53173 0.94782 0.07718 0.05300
H 	H 	0.49658 0.94601 0.01774 0.05100
H 	H 	0.45262 0.91012 0.10102 0.05400
H 	H 	0.47548 0.80012 0.29742 0.06500
H 	H 	0.52832 0.81968 0.38326 0.08100
H 	H 	0.53417 0.77794 0.29084 0.08600
H 	H 	0.55660 0.83142 0.30301 0.07800
H 	H 	0.54280 0.89257 0.19665 0.05900
H 	H 	0.54657 0.04936 0.19275 0.06000
C 	C 	0.03223 0.30267 0.46136 -0.08900
O 	O 	0.04661 0.33300 0.52822 -0.14300
C 	C 	0.03017 0.37353 0.55278 0.06600
C 	C 	0.03774 0.41922 0.52003 0.03900
I 	I 	0.07390 0.42793 0.43454 -0.10000
C 	C 	0.02107 0.45973 0.54290 -0.08100
C 	C 	0.99693 0.45515 0.59935 0.05700
C 	C 	0.97811 0.49835 0.62015 -0.09300
C 	C 	0.95920 0.51291 0.53608 -0.09200
C 	C 	0.93400 0.54499 0.56229 0.05700
C 	C 	0.93948 0.59213 0.59356 -0.05200
C 	C 	0.91610 0.62188 0.61965 -0.02800
C 	C 	0.88709 0.60406 0.61403 -0.06200
C 	C 	0.88145 0.55670 0.58459 0.08800
C 	C 	0.85055 0.53726 0.58452 -0.20400
C 	C 	0.90494 0.52745 0.55809 -0.10600
C 	C 	0.99002 0.40972 0.63447 -0.08100
C 	C 	0.00658 0.36909 0.61187 0.03500
I 	I 	0.99570 0.30210 0.67056 -0.10200
H 	H 	0.02718 0.26745 0.49280 0.07600
H 	H 	0.01107 0.31828 0.43371 0.06700
H 	H 	0.02679 0.49474 0.51628 0.06200
H 	H 	0.99248 0.52892 0.64267 0.05500
H 	H 	0.96347 0.48992 0.67717 0.05400
H 	H 	0.95043 0.47988 0.50138 0.05200
H 	H 	0.97303 0.53201 0.48672 0.05300
H 	H 	0.96197 0.60545 0.59780 0.05900
H 	H 	0.86890 0.62637 0.63537 0.05500
H 	H 	0.84229 0.53844 0.65470 0.07300
H 	H 	0.83589 0.55945 0.53939 0.07600
H 	H 	0.84960 0.49926 0.56018 0.07200
H 	H 	0.90069 0.49074 0.53574 0.05700
H 	H 	0.97160 0.40571 0.67879 0.06000
