data_crystal

_cell_length_a 29.06920
_cell_length_b 13.54940
_cell_length_c 15.96350
_cell_angle_alpha 77.25380
_cell_angle_beta  95.56940
_cell_angle_gamma 84.15210

_symmetry_space_group_name_	'P 1'
_symmetry_space_group_name_H-M	'P 1'

loop_
_symmetry_equiv_pos_as_xyz
  x,y,z

loop_
_atom_site_label
_atom_site_type_symbol
_atom_site_fract_x
_atom_site_fract_y
_atom_site_fract_z
_atom_site_charge
Eu	Eu	0.39537 0.86978 0.10273 1.80600
O 	O 	0.30069 0.91700 0.13921 -0.31600
C 	C 	0.33243 0.70541 0.08537 0.26000
O 	O 	0.47390 1.07149 0.02662 -0.20600
O 	O 	0.41201 1.03136 0.09482 -0.41100
O 	O 	0.47364 0.72013 0.07158 -0.28000
O 	O 	0.31507 0.76213 0.01681 -0.26900
O 	O 	0.37871 0.70729 0.11563 -0.40800
O 	O 	0.36637 0.86525 0.23106 -0.41300
C 	C 	0.31805 0.88137 0.21395 0.26700
O 	O 	0.46796 0.81149 0.17417 -0.40400
C 	C 	0.48939 0.73482 0.14053 0.27100
C 	C 	0.43207 1.06565 0.01972 0.23300
Eu	Eu	0.89716 0.59340 0.93322 1.80200
O 	O 	0.79010 0.65888 0.94048 -0.29100
C 	C 	0.86712 0.38728 1.00872 0.24800
O 	O 	0.95414 0.69722 1.03830 -0.35000
O 	O 	0.90023 0.76341 0.92376 -0.41900
O 	O 	1.00181 0.59719 0.89514 -0.30400
O 	O 	0.87442 0.40291 1.08079 -0.28600
O 	O 	0.89414 0.42504 0.94457 -0.42000
O 	O 	0.83182 0.62663 0.83507 -0.39900
C 	C 	0.79240 0.66871 0.86364 0.27600
O 	O 	0.93321 0.60551 0.81172 -0.41000
C 	C 	0.98137 0.60595 0.82312 0.28400
C 	C 	0.93263 0.77383 0.98980 0.28200
Eu	Eu	0.05067 0.39509 0.23494 1.78400
O 	O 	0.10043 0.26912 0.12310 -0.27300
C 	C 	0.15212 0.43680 0.22224 0.25900
O 	O 	-0.00709 0.34399 0.07586 -0.30400
O 	O 	-0.01054 0.30531 0.21972 -0.42100
O 	O 	-0.00783 0.51174 0.33903 -0.30100
O 	O 	0.14929 0.42879 0.14739 -0.24900
O 	O 	0.11325 0.48175 0.25131 -0.42900
O 	O 	0.09824 0.24511 0.26727 -0.41500
C 	C 	0.11303 0.21565 0.19566 0.27400
O 	O 	0.04630 0.37289 0.37995 -0.40400
C 	C 	0.01786 0.45290 0.39762 0.27300
C 	C 	-0.01326 0.27999 0.13957 0.27400
Eu	Eu	0.67335 0.26807 0.68440 1.83300
O 	O 	0.65127 0.05374 0.68918 -0.28900
C 	C 	0.76649 0.16691 0.77899 0.22300
O 	O 	0.60046 0.30783 0.80007 -0.30300
O 	O 	0.59506 0.26199 0.67245 -0.41400
O 	O 	0.59872 0.47900 0.60739 -0.25300
O 	O 	0.80773 0.14674 0.80851 -0.17500
O 	O 	0.75280 0.25414 0.71126 -0.39800
O 	O 	0.67900 0.16861 0.58665 -0.41600
C 	C 	0.66414 0.07353 0.61744 0.28100
O 	O 	0.66484 0.40529 0.56926 -0.41300
C 	C 	0.61743 0.44537 0.55261 0.25200
C 	C 	0.57894 0.26679 0.75055 0.27000
C 	C 	0.30382 0.64082 0.13933 0.04800
N 	N 	0.32149 0.59048 0.22125 -0.06500
N 	N 	0.29466 0.53987 0.27422 -0.09000
C 	C 	0.24909 0.53811 0.24737 0.13500
C 	C 	0.21838 0.48886 0.31044 -0.11800
C 	C 	0.19752 0.39883 0.28294 -0.02400
N 	N 	0.19024 0.32363 0.36058 -0.17300
N 	N 	0.23127 0.58765 0.16490 -0.08000
N 	N 	0.25831 0.63887 0.11213 -0.05800
H 	H 	0.24010 0.46028 0.37476 0.07500
H 	H 	0.19056 0.54709 0.31877 0.07500
H 	H 	0.22357 0.36143 0.24904 0.06200
H 	H 	0.15657 0.33800 0.37678 0.09000
H 	H 	0.19358 0.25131 0.34716 0.10000
C 	C 	0.75314 0.72147 0.79868 0.04600
N 	N 	0.75533 0.72171 0.71424 -0.05700
N 	N 	0.72242 0.77625 0.65322 -0.08400
C 	C 	0.68689 0.83519 0.67474 0.12400
C 	C 	0.64939 -0.10580 0.60563 -0.08800
C 	C 	0.66392 -0.00251 0.56041 -0.03300
N 	N 	0.63210 0.04175 0.48096 -0.16600
N 	N 	0.68404 -0.16650 0.75928 -0.07300
N 	N 	0.71684 0.77856 0.82044 -0.06700
H 	H 	0.64334 0.84798 0.55707 0.06300
H 	H 	0.61597 0.90574 0.63345 0.07300
H 	H 	0.70008 -0.01750 0.54384 0.05800
H 	H 	0.63640 -0.00612 0.43823 0.09600
H 	H 	0.64308 0.11083 0.45042 0.09900
C 	C 	0.14432 0.11993 0.20927 0.04700
N 	N 	0.14838 0.06815 0.14576 -0.05400
N 	N 	0.17770 0.98113 0.16062 -0.08400
C 	C 	0.20429 0.94556 0.23864 0.14100
C 	C 	0.23666 0.84747 0.25676 -0.11800
C 	C 	0.28742 0.86452 0.28650 -0.02500
N 	N 	0.30831 0.78506 0.36104 -0.17100
N 	N 	0.19950 0.99660 0.30224 -0.09100
N 	N 	0.17026 0.08209 0.28778 -0.05900
H 	H 	0.22332 0.79238 0.30892 0.07200
H 	H 	0.23547 0.81428 0.19858 0.08300
H 	H 	0.28556 0.93601 0.30962 0.06000
H 	H 	0.30974 0.71444 0.34465 0.09700
H 	H 	0.34322 0.79437 0.37916 0.10000
C 	C 	0.82986 0.32877 0.98766 0.05100
N 	N 	0.82365 0.23879 1.04079 -0.06000
N 	N 	0.79042 0.18586 1.01707 -0.08200
C 	C 	0.76300 0.21966 0.94020 0.14200
C 	C 	0.72563 0.15844 0.91353 -0.13000
C 	C 	0.73115 0.12090 0.82897 -0.00400
N 	N 	0.74214 0.00962 0.84700 -0.17200
N 	N 	0.76898 0.31044 0.88803 -0.09400
N 	N 	0.80200 0.36332 0.91130 -0.06300
H 	H 	0.72067 0.09686 0.96881 0.07100
H 	H 	0.69243 0.21103 0.90292 0.03700
H 	H 	0.69621 0.14206 0.79082 -0.13300
H 	H 	0.71180 -0.02115 0.83167 0.10700
H 	H 	0.75348 -0.02241 0.91222 0.10300
C 	C 	0.52766 0.66331 0.19489 0.05400
N 	N 	0.53176 0.56242 0.19513 -0.05500
N 	N 	0.56126 0.49391 0.25493 -0.08300
C 	C 	0.58745 0.52546 0.31639 0.14100
C 	C 	0.61513 0.44961 0.39139 -0.12100
C 	C 	0.58766 0.43810 0.47126 -0.02200
N 	N 	0.56787 0.34128 0.48617 -0.17500
N 	N 	0.58413 0.62639 0.31528 -0.08400
N 	N 	0.55469 0.69398 0.25580 -0.05800
H 	H 	0.62172 0.37412 0.37396 0.07600
H 	H 	0.64985 0.47534 0.40373 0.08200
H 	H 	0.55773 0.50065 0.45848 0.05800
H 	H 	0.54717 0.33793 0.42975 0.09800
H 	H 	0.54476 0.34187 0.53282 0.10500
C 	C 	0.93978 0.87390 1.00464 0.02300
N 	N 	0.91321 0.95994 0.95630 -0.05000
N 	N 	-0.07939 1.05149 0.96956 -0.08700
C 	C 	-0.04497 0.06050 1.03055 0.13800
C 	C 	-0.03432 0.16476 1.03964 -0.14100
C 	C 	-0.01957 0.17249 0.13403 -0.00900
N 	N 	0.02425 0.10794 0.17203 -0.16500
N 	N 	-0.01819 0.97415 0.07784 -0.08500
N 	N 	0.97422 0.88320 0.06485 -0.04400
H 	H 	-0.00630 0.18658 0.99913 0.08000
H 	H 	-0.06605 0.21944 1.01210 0.08700
H 	H 	-0.04733 0.14889 0.17424 0.06300
H 	H 	0.04594 0.10181 1.12419 0.08600
H 	H 	0.01788 0.03525 0.20320 0.10700
C 	C 	0.53769 0.21926 0.77497 0.03300
N 	N 	0.52273 0.14773 0.73496 -0.05800
N 	N 	0.48812 0.09675 0.76238 -0.07800
C 	C 	0.46720 1.11519 0.83106 0.11000
C 	C 	0.42955 1.05298 0.86234 -0.11900
C 	C 	0.40303 1.09047 -0.06837 -0.04000
N 	N 	0.35947 1.04306 -0.06143 -0.21100
N 	N 	0.48159 0.18872 -0.13019 -0.05500
N 	N 	0.51665 0.23830 -0.15688 -0.03800
H 	H 	0.40435 1.05701 0.80434 0.05700
H 	H 	0.44479 0.97172 0.88667 0.03800
H 	H 	0.39370 1.17538 -0.08940 0.06200
H 	H 	0.34222 1.05088 0.87692 0.06600
H 	H 	0.33692 1.08496 -0.03033 0.07500
C 	C 	0.02068 0.46916 0.48573 0.04200
N 	N 	0.05662 0.42003 0.54634 -0.05900
N 	N 	0.06270 0.44430 0.62331 -0.08500
C 	C 	0.03285 0.51737 0.64284 0.13100
C 	C 	0.04051 0.53929 0.73170 -0.11500
C 	C 	1.00676 0.63083 0.74445 -0.03200
N 	N 	1.02863 0.72477 0.74087 -0.16700
N 	N 	0.99646 0.56493 0.58236 -0.07800
N 	N 	0.99046 0.54123 0.50533 -0.05100
H 	H 	0.03983 0.46806 0.78304 0.06800
H 	H 	0.07710 0.55724 0.74004 0.06600
H 	H 	0.97765 0.64951 0.69095 0.07600
H 	H 	1.06406 0.71619 0.73476 0.09600
H 	H 	1.02448 0.75629 0.79426 0.09900
