data_crystal

_cell_length_a 35.78460
_cell_length_b 21.14250
_cell_length_c 11.31470
_cell_angle_alpha 90.68710
_cell_angle_beta  91.07790
_cell_angle_gamma 90.50890

_symmetry_space_group_name_	'P 1'
_symmetry_space_group_name_H-M	'P 1'

loop_
_symmetry_equiv_pos_as_xyz
  x,y,z

loop_
_atom_site_label
_atom_site_type_symbol
_atom_site_fract_x
_atom_site_fract_y
_atom_site_fract_z
_atom_site_charge
Eu	Eu	0.39218 0.73608 0.14614 1.81000
O 	O 	0.34434 0.84644 0.08431 -0.32600
C 	C 	0.32967 0.65469 0.04317 0.31100
O 	O 	0.45293 0.78719 -0.00555 -0.34500
O 	O 	0.42701 0.82647 0.15955 -0.44800
O 	O 	0.46610 0.67747 0.20863 -0.33900
O 	O 	0.32520 0.70718 0.00175 -0.34600
O 	O 	0.35670 0.64637 0.13145 -0.46100
O 	O 	0.34637 0.78575 0.24704 -0.43400
C 	C 	0.33409 0.83820 0.18511 0.31600
O 	O 	0.41673 0.70362 0.32095 -0.44700
C 	C 	0.45315 0.68281 0.30731 0.32100
C 	C 	0.44829 0.83284 0.05911 0.31000
Eu	Eu	0.87952 0.76372 0.70967 1.78100
O 	O 	0.79994 0.80212 0.68087 -0.34600
C 	C 	0.85106 0.63139 0.77037 0.31600
O 	O 	0.94798 0.78993 0.86720 -0.33100
O 	O 	0.92026 0.84697 0.72265 -0.46000
O 	O 	0.93670 0.66519 0.74659 -0.31500
O 	O 	0.86739 0.64571 0.86269 -0.32500
O 	O 	0.84023 0.67845 0.69217 -0.44300
O 	O 	0.84849 0.81109 0.55725 -0.44300
C 	C 	0.81101 0.81887 0.58467 0.32100
O 	O 	0.91879 0.71564 0.58091 -0.43200
C 	C 	0.93958 0.67024 0.64006 0.30400
C 	C 	0.95082 0.83189 0.79466 0.31300
Eu	Eu	0.11400 0.25307 0.24172 1.75800
O 	O 	0.15041 0.12558 0.21320 -0.32900
C 	C 	0.18920 0.33073 0.26273 0.30600
O 	O 	0.04461 0.23051 0.09620 -0.34700
O 	O 	0.07554 0.16721 0.22288 -0.43600
O 	O 	0.07969 0.37906 0.30686 -0.32500
O 	O 	0.20051 0.27739 0.27929 -0.30400
O 	O 	0.15105 0.34192 0.25495 -0.44600
O 	O 	0.15149 0.19607 0.36549 -0.42300
C 	C 	0.15974 0.13737 0.31554 0.32500
O 	O 	0.08215 0.28606 0.40301 -0.43800
C 	C 	0.07699 0.35116 0.40014 0.32000
C 	C 	0.04988 0.17711 0.13166 0.30200
Eu	Eu	0.61435 0.24864 0.80055 1.82600
O 	O 	0.63748 0.12085 0.85124 -0.35100
C 	C 	0.67133 0.34792 0.89383 0.31200
O 	O 	0.54671 0.24668 0.96013 -0.33300
O 	O 	0.56084 0.18989 0.79631 -0.45300
O 	O 	0.57125 0.36091 0.81027 -0.33900
O 	O 	0.64928 0.34409 0.97401 -0.33800
O 	O 	0.66757 0.30805 0.79581 -0.45700
O 	O 	0.64153 0.17533 0.68197 -0.44100
C 	C 	0.64997 0.12359 0.75198 0.30600
O 	O 	0.59052 0.30711 0.65021 -0.43800
C 	C 	0.57217 0.35742 0.70287 0.30500
C 	C 	0.53604 0.21053 0.88141 0.32100
C 	C 	0.30776 0.59945 -0.00660 -0.20400
C 	C 	0.27742 0.57565 0.07643 0.00200
C 	C 	0.29282 0.54121 0.18645 -0.10100
C 	C 	0.26752 0.48487 0.21592 0.00700
C 	C 	0.27279 0.42582 0.15757 -0.01200
C 	C 	0.30777 0.41538 0.08599 -0.15400
C 	C 	0.24525 0.37750 0.16538 0.06900
C 	C 	0.24563 0.32214 0.07833 -0.18100
C 	C 	0.21615 0.38369 0.24789 -0.13300
C 	C 	0.21255 0.44063 0.31441 0.07500
C 	C 	0.18332 0.44631 0.40961 -0.18600
C 	C 	0.23679 0.49270 0.29247 -0.01400
C 	C 	0.23062 0.55651 0.35208 -0.15400
H 	H 	0.29375 0.61425 -0.09029 0.07300
H 	H 	0.32718 0.56083 -0.02975 0.06600
H 	H 	0.25968 0.61587 0.10406 0.02300
H 	H 	0.25912 0.54292 0.02310 0.02400
H 	H 	0.29559 0.57526 0.26161 0.05200
H 	H 	0.32200 0.52588 0.17299 0.05500
H 	H 	0.31051 0.36690 0.04971 0.05300
H 	H 	0.33286 0.42288 0.14397 0.05500
H 	H 	0.30846 0.44853 0.01075 0.05400
H 	H 	0.24923 0.34001 -0.01271 0.05700
H 	H 	0.26860 0.28931 0.10116 0.06500
H 	H 	0.21917 0.29468 0.07416 0.05600
H 	H 	0.16009 0.47676 0.37817 0.06900
H 	H 	0.19618 0.46704 0.49150 0.05900
H 	H 	0.17145 0.40030 0.43668 0.07400
H 	H 	0.25290 0.56553 0.41991 0.05400
H 	H 	0.20335 0.56085 0.39565 0.05200
H 	H 	0.23088 0.59479 0.28612 0.05500
C 	C 	0.78423 0.84554 0.49445 -0.20600
C 	C 	0.76924 0.91078 0.53059 0.00100
C 	C 	0.74253 0.90751 0.63567 -0.10300
C 	C 	0.72070 0.96872 0.65294 0.00800
C 	C 	0.68575 0.97723 0.59304 -0.01300
C 	C 	0.67202 0.93139 0.49664 -0.15400
C 	C 	0.66261 0.02874 0.62439 0.07400
C 	C 	0.62397 0.03419 0.56695 -0.18600
C 	C 	0.67527 0.07355 0.71034 -0.12800
C 	C 	0.71152 0.06878 0.76206 0.06800
C 	C 	0.72624 0.11980 0.84737 -0.17600
C 	C 	0.73409 0.01582 0.73471 -0.01100
C 	C 	0.77234 0.00820 0.79379 -0.15400
H 	H 	0.79903 0.85050 0.40945 0.07500
H 	H 	0.76069 0.81170 0.47849 0.07300
H 	H 	0.79313 0.94291 0.55205 0.02100
H 	H 	0.75445 0.93098 0.45278 0.02200
H 	H 	0.75874 0.89582 0.71650 0.05600
H 	H 	0.72300 0.86665 0.62572 0.05200
H 	H 	0.64722 0.90477 0.52723 0.05400
H 	H 	0.69285 0.89653 0.46777 0.05500
H 	H 	0.66436 0.95784 0.41580 0.05400
H 	H 	0.62660 1.04174 0.47054 0.06400
H 	H 	0.60755 0.99029 0.58182 0.06200
H 	H 	0.60715 0.07370 0.60175 0.07500
H 	H 	0.75215 0.14133 0.81238 0.05600
H 	H 	0.73204 0.09893 0.93538 0.05900
H 	H 	0.70686 0.15956 0.86126 0.05100
H 	H 	0.77152 -0.03145 0.85703 0.05100
H 	H 	0.78260 0.05007 0.84424 0.05100
H 	H 	0.79375 -0.00103 0.72644 0.05300
C 	C 	0.17879 0.08820 0.38937 -0.20100
C 	C 	0.21327 0.06105 0.32872 -0.00400
C 	C 	0.23677 0.02113 0.41494 -0.10200
C 	C 	0.26177 -0.02586 0.35050 0.01000
C 	C 	0.29814 -0.00742 0.31419 -0.01300
C 	C 	0.31233 0.06040 0.32800 -0.15400
C 	C 	0.32230 0.94700 0.26454 0.07500
C 	C 	0.36251 0.96580 0.23862 -0.19200
C 	C 	0.30927 0.88446 0.24221 -0.13200
C 	C 	0.27261 0.86619 0.27369 0.07800
C 	C 	0.25837 0.79931 0.24768 -0.19000
C 	C 	0.24899 0.91082 0.32941 -0.01400
C 	C 	0.20987 0.89163 0.36702 -0.15400
H 	H 	0.15852 0.04920 0.40504 0.07200
H 	H 	0.18701 0.10967 0.47636 0.07800
H 	H 	0.20376 0.03151 0.25183 0.03600
H 	H 	0.23057 0.10031 0.29448 0.03000
H 	H 	0.21811 -0.00356 0.47652 0.04600
H 	H 	0.25336 0.05222 0.47601 0.04600
H 	H 	0.33530 0.06267 0.39528 0.05300
H 	H 	0.29119 0.09515 0.35431 0.05700
H 	H 	0.32289 0.07732 0.24219 0.05500
H 	H 	0.36303 0.00018 0.16544 0.06900
H 	H 	0.37606 -0.01273 0.31862 0.06400
H 	H 	0.38056 0.92585 0.21368 0.08200
H 	H 	0.23301 0.80098 0.18989 0.06500
H 	H 	0.25180 0.77540 0.33176 0.06600
H 	H 	0.27816 0.76868 0.20032 0.08000
H 	H 	0.20863 0.89167 0.46499 0.05400
H 	H 	0.20060 0.84402 0.33704 0.05300
H 	H 	0.18900 0.92504 0.33054 0.05700
C 	C 	0.84502 0.56319 0.73686 -0.20000
C 	C 	0.80449 0.54145 0.75315 -0.00300
C 	C 	0.79576 0.52874 0.88367 -0.10100
C 	C 	0.76333 0.48160 0.89346 0.00800
C 	C 	0.76977 0.41566 0.87746 -0.01200
C 	C 	0.80841 0.39009 0.85062 -0.15500
C 	C 	0.73977 0.37191 0.88713 0.07200
C 	C 	0.74775 0.30133 0.88269 -0.18000
C 	C 	0.70284 0.39397 0.90016 -0.13200
C 	C 	0.69597 0.45968 0.91269 0.07400
C 	C 	0.65623 0.48428 0.91785 -0.19100
C 	C 	0.72654 0.50322 0.91587 -0.01300
C 	C 	0.72032 0.57309 0.94151 -0.15500
H 	H 	0.85221 0.55714 0.64245 0.06900
H 	H 	0.86449 0.53282 0.78813 0.07600
H 	H 	0.78482 0.57718 0.71721 0.03200
H 	H 	0.80006 0.49765 0.69912 0.02600
H 	H 	0.79062 0.57479 0.92754 0.05000
H 	H 	0.82041 0.51089 0.93357 0.05000
H 	H 	0.81923 0.36284 0.92690 0.05300
H 	H 	0.82981 0.42602 0.83047 0.05600
H 	H 	0.80670 0.35878 0.77129 0.05400
H 	H 	0.75466 0.28689 0.79105 0.06400
H 	H 	0.77138 0.28988 0.94338 0.05700
H 	H 	0.72414 0.27165 0.91231 0.05900
H 	H 	0.65214 0.52175 0.85097 0.06200
H 	H 	0.65094 0.50362 1.00765 0.06900
H 	H 	0.63435 0.44840 0.89695 0.08100
H 	H 	0.73682 0.58766 1.02153 0.05500
H 	H 	0.69116 0.58579 0.96071 0.05400
H 	H 	0.72899 0.60162 0.86478 0.05700
C 	C 	0.47632 0.66855 0.41490 -0.20500
C 	C 	0.48560 0.59809 0.42221 -0.00200
C 	C 	0.50118 0.58350 0.54615 -0.10200
C 	C 	0.51819 0.51795 0.55544 0.01000
C 	C 	0.55723 0.51014 0.53879 -0.01200
C 	C 	0.58071 0.56102 0.48094 -0.15500
C 	C 	0.57506 0.45502 0.58082 0.07300
C 	C 	0.61740 0.45039 0.57567 -0.18900
C 	C 	0.55356 0.40651 0.63211 -0.12800
C 	C 	0.51403 0.40966 0.63074 0.07500
C 	C 	0.49095 0.35358 0.67138 -0.18500
C 	C 	0.49623 0.46612 0.59456 -0.01200
C 	C 	0.45394 0.47254 0.60104 -0.15300
H 	H 	0.50253 0.69711 0.41398 0.07200
H 	H 	0.46031 0.68294 0.49410 0.07700
H 	H 	0.45988 0.56962 0.40446 0.02500
H 	H 	0.50610 0.58566 0.35334 0.03200
H 	H 	0.47877 0.58996 0.61127 0.04500
H 	H 	0.52214 0.61990 0.57456 0.04700
H 	H 	0.60051 0.58250 0.54697 0.05400
H 	H 	0.56438 0.59958 0.44084 0.05800
H 	H 	0.59663 0.54004 0.40717 0.05700
H 	H 	0.62641 0.45231 0.48254 0.06800
H 	H 	0.63053 0.49012 0.62669 0.06300
H 	H 	0.62886 0.40621 0.61232 0.07400
H 	H 	0.47121 0.33824 0.59955 0.06100
H 	H 	0.47522 0.36682 0.75153 0.06500
H 	H 	0.50771 0.31132 0.69279 0.06800
H 	H 	0.44659 0.50680 0.67164 0.05300
H 	H 	0.43884 0.42823 0.62066 0.05200
H 	H 	0.44235 0.48820 0.51501 0.05600
C 	C 	0.98757 0.86518 0.77900 -0.20000
C 	C 	0.99849 0.90699 0.88578 -0.00600
C 	C 	0.97238 0.96409 0.89916 -0.09600
C 	C 	0.99270 0.01938 0.96109 0.00100
C 	C 	0.01880 0.05655 0.89765 -0.00600
C 	C 	0.02723 0.04315 0.76823 -0.15800
C 	C 	0.03825 0.10715 0.95533 0.06100
C 	C 	0.06817 0.14314 0.88862 -0.17100
C 	C 	0.03035 0.12270 0.07425 -0.12300
C 	C 	0.00452 0.08598 0.13828 0.07300
C 	C 	-0.00456 0.10366 0.26519 -0.18500
C 	C 	0.98641 0.03303 0.08264 -0.00900
C 	C 	0.96046 0.99045 0.15188 -0.15600
H 	H 	1.00961 0.82922 0.76582 0.06800
H 	H 	0.98635 0.89426 0.69779 0.07200
H 	H 	0.99831 0.87869 0.96803 0.03100
H 	H 	0.02783 0.92315 0.87379 0.02700
H 	H 	0.94712 0.94826 0.94585 0.04300
H 	H 	0.96061 0.97988 0.81304 0.04700
H 	H 	0.02143 0.08582 0.71504 0.05600
H 	H 	0.01105 0.00425 0.72601 0.05700
H 	H 	0.05701 0.03010 0.75940 0.05500
H 	H 	0.08948 0.10980 0.85566 0.05500
H 	H 	0.05518 0.16816 0.81286 0.05900
H 	H 	0.08395 0.17876 0.94232 0.04000
H 	H 	0.00585 0.06659 0.32592 0.06600
H 	H 	0.96475 0.10873 0.27405 0.06100
H 	H 	0.00778 0.14923 0.29611 0.07400
H 	H 	0.93126 -0.00410 0.11870 0.05400
H 	H 	0.96045 0.00004 0.24816 0.05400
H 	H 	0.96916 0.94038 0.14184 0.05800
C 	C 	0.49620 0.18824 0.87501 -0.20500
C 	C 	0.48884 0.13328 0.95882 -0.00100
C 	C 	0.51419 0.07608 0.93486 -0.10000
C 	C 	0.49557 1.01415 0.97041 0.00400
C 	C 	0.46873 0.98432 0.89324 -0.01000
C 	C 	0.45639 1.01415 0.77707 -0.15600
C 	C 	0.45269 0.92535 0.92390 0.06600
C 	C 	0.42279 0.89573 0.84252 -0.18000
C 	C 	0.46430 0.89523 0.02944 -0.12700
C 	C 	0.49026 0.92545 0.10815 0.07300
C 	C 	0.50378 0.89235 0.21938 -0.18700
C 	C 	0.50491 0.98605 0.08059 -0.01000
C 	C 	0.53073 0.02121 0.16783 -0.15500
H 	H 	0.47754 0.22829 0.89679 0.07200
H 	H 	0.48926 0.17303 0.78288 0.07200
H 	H 	0.49297 0.14983 1.05175 0.02700
H 	H 	0.45892 0.11944 0.94794 0.02300
H 	H 	0.54134 0.08434 0.98128 0.05100
H 	H 	0.52249 0.07294 0.84101 0.05600
H 	H 	0.46381 0.98266 0.70212 0.05400
H 	H 	0.46855 1.06101 0.75911 0.05600
H 	H 	0.42576 1.02150 0.77601 0.05300
H 	H 	0.39924 0.92894 0.83071 0.06200
H 	H 	0.43487 0.88450 0.75515 0.06300
H 	H 	0.41004 0.85177 0.87575 0.05900
H 	H 	0.49267 0.91674 0.29849 0.06500
H 	H 	0.53480 0.89255 0.22383 0.06200
H 	H 	0.49539 0.84197 0.22383 0.07500
H 	H 	0.55973 1.02136 0.13477 0.05700
H 	H 	0.53151 1.00112 0.25757 0.05300
H 	H 	0.52116 0.07058 0.18004 0.05800
C 	C 	0.07045 0.38698 0.51290 -0.20400
C 	C 	0.03467 0.42623 0.50805 0.00300
C 	C 	0.03838 0.48488 0.42930 -0.10300
C 	C 	0.01349 0.53813 0.47340 0.01000
C 	C 	0.02758 0.58155 0.56075 -0.01200
C 	C 	0.06809 0.57686 0.60345 -0.15300
C 	C 	1.00377 0.62834 0.60807 0.07300
C 	C 	0.01984 0.67920 0.69108 -0.18600
C 	C 	0.96531 0.62824 0.57564 -0.12700
C 	C 	0.95124 0.58565 0.48727 0.07300
C 	C 	0.90995 0.58439 0.45313 -0.18600
C 	C 	0.97572 0.54194 0.43302 -0.01300
C 	C 	0.96191 0.49807 0.33334 -0.15500
H 	H 	0.06834 0.35275 0.58621 0.07400
H 	H 	0.09501 0.41800 0.53335 0.06800
H 	H 	0.01087 0.39611 0.47630 0.02400
H 	H 	0.02844 0.44110 0.60010 0.02400
H 	H 	0.03181 0.47148 0.33632 0.06000
H 	H 	0.06787 0.50095 0.42554 0.05400
H 	H 	0.08716 0.58758 0.53004 0.05300
H 	H 	0.07370 0.52863 0.63650 0.05400
H 	H 	0.07604 0.60931 0.67709 0.05300
H 	H 	0.02947 0.65777 0.77524 0.07000
H 	H 	0.04354 0.70353 0.64818 0.06100
H 	H 	0.99992 0.71693 0.71376 0.07500
H 	H 	0.89838 0.53601 0.46524 0.06000
H 	H 	0.90633 0.59863 0.35949 0.06800
H 	H 	0.89236 0.61602 0.50635 0.07100
H 	H 	0.97857 0.50630 0.25309 0.05900
H 	H 	0.93247 0.50468 0.30539 0.05600
H 	H 	0.96451 0.44802 0.36030 0.05700
