data_crystal

_cell_length_a 25.37420
_cell_length_b 17.36710
_cell_length_c 9.17710
_cell_angle_alpha 92.42940
_cell_angle_beta  97.95240
_cell_angle_gamma 83.91640

_symmetry_space_group_name_	'P 1'
_symmetry_space_group_name_H-M	'P 1'

loop_
_symmetry_equiv_pos_as_xyz
  x,y,z

loop_
_atom_site_label
_atom_site_type_symbol
_atom_site_fract_x
_atom_site_fract_y
_atom_site_fract_z
_atom_site_charge
Eu	Eu	0.39368 0.68244 -0.08252 2.02500
O 	O 	0.34602 0.84753 -0.16064 -0.21200
C 	C 	0.30996 0.60226 -0.29477 0.35300
O 	O 	0.50798 0.72125 -0.09338 -0.20700
O 	O 	0.43917 0.78491 0.00574 -0.38000
O 	O 	0.37724 0.52489 0.08442 -0.21300
O 	O 	0.29987 0.67056 -0.32437 -0.23600
O 	O 	0.34867 0.58037 -0.17690 -0.40300
O 	O 	0.31455 0.75246 -0.04948 -0.37600
C 	C 	0.31428 0.82984 -0.08298 0.39800
O 	O 	0.39977 0.64564 0.15601 -0.40700
C 	C 	0.38011 0.57585 0.17954 0.34500
C 	C 	0.48740 0.78311 -0.05107 0.37300
Eu	Eu	0.90028 0.74366 0.98890 1.88400
O 	O 	0.84895 0.90707 0.94806 -0.26200
C 	C 	0.78661 0.73053 1.05668 0.28300
O 	O 	1.05858 0.77981 1.19033 -0.11400
O 	O 	0.99162 0.73047 1.03910 -0.36100
O 	O 	0.94968 0.57089 0.97799 -0.23700
O 	O 	0.74267 0.75906 1.08308 -0.12900
O 	O 	0.80922 0.75910 0.94281 -0.35700
O 	O 	0.90345 0.83155 0.81375 -0.35400
C 	C 	0.87079 0.89927 0.83691 0.36600
O 	O 	0.90515 0.65120 0.80625 -0.34900
C 	C 	0.94425 0.59159 0.85099 0.39100
C 	C 	1.01077 0.78412 1.14518 0.31400
Eu	Eu	0.09327 0.28957 0.13514 1.98800
O 	O 	0.12615 0.12325 0.01977 -0.23000
C 	C 	0.16806 0.34712 -0.06587 0.41300
O 	O 	0.00985 0.18782 -0.00467 -0.23000
O 	O 	0.04719 0.20227 0.22960 -0.39900
O 	O 	0.06026 0.44678 0.25526 -0.24600
O 	O 	0.16629 0.27903 -0.10220 -0.22100
O 	O 	0.13993 0.37819 0.04627 -0.38500
O 	O 	0.16853 0.20548 0.18083 -0.38200
C 	C 	0.15773 0.13145 0.13046 0.34200
O 	O 	0.11161 0.34468 0.36308 -0.39600
C 	C 	0.09046 0.42195 0.36240 0.33200
C 	C 	0.02049 0.15992 0.11677 0.38900
Eu	Eu	0.60109 0.29636 0.94213 1.91000
O 	O 	0.71760 0.24905 0.99698 -0.25400
C 	C 	0.67362 0.41925 1.07835 0.40200
O 	O 	0.62156 0.11243 1.02347 -0.23500
O 	O 	0.55017 0.19553 0.93857 -0.39300
O 	O 	0.54079 0.44924 0.87101 -0.27200
O 	O 	0.66050 0.38939 1.18384 -0.26900
O 	O 	0.65216 0.39638 0.93764 -0.37200
O 	O 	0.65680 0.22278 0.80512 -0.38000
C 	C 	0.70742 0.21028 0.88527 0.39800
O 	O 	0.54840 0.33959 0.73436 -0.37200
C 	C 	0.52634 0.41518 0.75651 0.39800
C 	C 	0.58178 0.12516 0.93297 0.34200
C 	C 	0.28209 0.54168 -0.38820 -0.15600
C 	C 	0.25442 0.49167 -0.29823 -0.01000
C 	C 	0.21322 0.52466 -0.22048 0.19400
F 	F 	0.19880 0.60224 -0.22225 -0.34200
C 	C 	0.18616 0.47794 -0.14173 0.31000
F 	F 	0.14564 0.51190 -0.07123 -0.36600
C 	C 	0.19880 0.39687 -0.14257 -0.19700
C 	C 	0.24015 0.36402 -0.22027 0.31800
F 	F 	0.25386 0.28629 -0.22283 -0.33700
C 	C 	0.26782 0.41095 -0.29664 0.20300
F 	F 	0.30721 0.37704 -0.37120 -0.34300
H 	H 	0.25219 0.56904 -0.47578 0.13300
H 	H 	0.31268 0.50621 -0.44356 0.13100
C 	C 	0.86278 0.96121 0.72374 -0.16800
C 	C 	0.82306 1.02821 0.75995 0.02000
C 	C 	0.83724 0.08039 0.87601 0.19900
F 	F 	0.88682 1.07220 0.95413 -0.35600
C 	C 	0.80013 0.14010 0.91572 0.32100
F 	F 	0.81535 0.18777 1.03165 -0.36100
C 	C 	0.74795 0.14969 0.83801 -0.20200
C 	C 	0.73439 0.09874 0.71828 0.32400
F 	F 	0.68490 0.10586 0.63919 -0.37400
C 	C 	0.77157 0.03862 0.67969 0.19900
F 	F 	0.75668 -0.01044 0.56581 -0.34600
H 	H 	0.90176 0.98284 0.71412 0.18200
H 	H 	0.84912 0.93372 0.61583 0.15700
C 	C 	0.18242 0.06249 0.21720 -0.14900
C 	C 	0.21360 0.00332 0.12797 -0.01500
C 	C 	0.20142 0.92588 0.11422 0.22500
F 	F 	0.15995 0.90350 0.17550 -0.34800
C 	C 	0.23344 0.86986 0.04296 0.31100
F 	F 	0.22089 0.79557 0.03472 -0.34600
C 	C 	0.27772 0.89034 -0.01857 -0.17900
C 	C 	0.28851 -0.03145 -0.00946 0.30900
F 	F 	0.33035 -0.00861 -0.06815 -0.31800
C 	C 	0.25726 0.02408 0.06474 0.22100
F 	F 	0.27052 0.09806 0.07795 -0.32900
H 	H 	0.15002 0.03701 0.26229 0.13600
H 	H 	0.20999 0.08195 0.31248 0.14200
C 	C 	0.81552 0.66444 1.14552 -0.13000
C 	C 	0.78167 0.59728 1.13245 -0.01300
C 	C 	0.76996 0.55920 0.99536 0.21400
F 	F 	0.79127 0.57973 0.87656 -0.35200
C 	C 	0.73516 0.50128 0.97805 0.32000
F 	F 	0.72433 0.46732 0.84243 -0.34400
C 	C 	0.71193 0.47906 1.09874 -0.19600
C 	C 	0.72528 0.51543 1.23770 0.32000
F 	F 	0.70394 0.49600 1.35720 -0.35400
C 	C 	0.75967 0.57413 1.25401 0.19900
F 	F 	0.77027 0.60965 0.38805 -0.32400
H 	H 	0.85420 0.64526 1.10469 -0.00300
H 	H 	0.82487 0.68490 1.26183 0.10000
C 	C 	0.36155 0.56384 0.32315 -0.15900
C 	C 	0.40630 0.52650 0.43118 -0.02300
C 	C 	0.42410 0.44757 0.41478 0.20300
F 	F 	0.40157 0.40442 0.30044 -0.34600
C 	C 	0.46368 0.41166 0.51861 0.31500
F 	F 	0.47949 0.33539 0.49818 -0.36300
C 	C 	0.48595 0.45397 0.64231 -0.20400
C 	C 	0.46798 0.53312 0.65795 0.29600
F 	F 	0.48762 0.57609 0.77579 -0.44900
C 	C 	0.42904 0.56908 0.55287 0.18400
F 	F 	0.41277 0.64529 0.57197 -0.44900
H 	H 	0.32838 0.52678 0.30250 0.12400
H 	H 	0.34456 0.62043 0.36666 0.12600
C 	C 	0.97315 0.84605 1.20676 -0.16200
C 	C 	0.98808 0.92662 0.18536 0.02500
C 	C 	0.99436 -0.04979 1.04450 0.20100
F 	F 	0.99117 -0.10016 0.92722 -0.36900
C 	C 	0.00436 0.02596 1.02221 0.30100
F 	F 	0.01042 0.04591 0.88437 -0.34900
C 	C 	0.00887 0.08004 0.14086 -0.16600
C 	C 	0.00417 0.05615 0.28280 0.29900
F 	F 	0.00772 0.10702 0.39917 -0.35500
C 	C 	0.99361 0.98028 0.30483 0.22900
F 	F 	0.98702 0.96029 0.44195 -0.34200
H 	H 	0.93182 0.84196 1.15107 -0.03600
H 	H 	0.97317 0.83493 0.32509 0.14700
C 	C 	0.56851 0.06741 0.81067 -0.16000
C 	C 	0.55145 -0.00543 0.86577 -0.00800
C 	C 	0.50244 -0.00315 0.92130 0.21100
F 	F 	0.47191 0.06529 0.93452 -0.33700
C 	C 	0.48311 0.92847 0.95645 0.28600
F 	F 	0.43512 0.93359 0.00717 -0.32300
C 	C 	0.51202 0.85594 -0.06558 -0.16900
C 	C 	0.56273 0.85422 -0.11274 0.33100
F 	F 	0.59325 0.78601 -0.12947 -0.33800
C 	C 	0.58214 0.92287 0.85281 0.20100
F 	F 	0.63022 0.91878 0.80204 -0.33800
H 	H 	0.53562 0.09380 0.72986 0.14700
H 	H 	0.60385 0.05457 0.75147 0.16500
C 	C 	0.10683 0.47530 0.48889 -0.14000
C 	C 	0.06053 0.50163 0.57174 -0.02100
C 	C 	1.04787 0.45555 0.68179 0.22000
F 	F 	1.07371 0.38371 0.70425 -0.39300
C 	C 	1.00916 0.48373 0.77079 0.31300
F 	F 	0.99927 0.43891 0.88000 -0.40800
C 	C 	0.98134 0.55779 0.74834 -0.18000
C 	C 	-0.00834 0.60158 0.63103 0.30000
F 	F 	-0.03453 0.67293 0.60432 -0.38600
C 	C 	0.03126 0.57411 0.54481 0.21600
F 	F 	0.04136 0.61851 0.43502 -0.36300
H 	H 	0.14000 0.44558 0.56389 0.11400
H 	H 	0.12306 0.52557 0.44648 0.13900
