data_crystal

_cell_length_a 38.75230
_cell_length_b 16.23160
_cell_length_c 17.10740
_cell_angle_alpha 85.02590
_cell_angle_beta  90.66520
_cell_angle_gamma 85.07960

_symmetry_space_group_name_	'P 1'
_symmetry_space_group_name_H-M	'P 1'

loop_
_symmetry_equiv_pos_as_xyz
  x,y,z

loop_
_atom_site_label
_atom_site_type_symbol
_atom_site_fract_x
_atom_site_fract_y
_atom_site_fract_z
_atom_site_charge
Eu	Eu	0.38958 0.74039 0.29111 1.86800
O 	O 	0.32195 0.80721 0.20755 -0.25300
C 	C 	0.32958 0.63193 0.32407 0.30800
O 	O 	0.44919 0.73956 0.17616 -0.28200
O 	O 	0.41654 0.84333 0.22446 -0.40300
O 	O 	0.42602 0.62834 0.42894 -0.27100
O 	O 	0.32614 0.64258 0.25271 -0.25600
O 	O 	0.36152 0.63940 0.35927 -0.41300
O 	O 	0.34586 0.83595 0.32051 -0.38000
C 	C 	0.31725 0.83461 0.27084 0.33800
O 	O 	0.41812 0.76774 0.40238 -0.40600
C 	C 	0.42840 0.69683 0.45155 0.32900
C 	C 	0.44538 0.81325 0.18522 0.34900
Eu	Eu	0.92405 0.70730 0.70097 1.84100
O 	O 	0.84928 0.72560 0.78669 -0.24400
C 	C 	0.89612 0.53826 0.75371 0.31900
O 	O 	0.92919 0.83809 0.82467 -0.29200
O 	O 	0.95430 0.82141 0.70774 -0.42100
O 	O 	0.98017 0.63190 0.60837 -0.29500
O 	O 	0.90668 0.55902 0.81609 -0.29300
O 	O 	0.89372 0.59481 0.68708 -0.41000
O 	O 	0.87441 0.79355 0.68371 -0.39300
C 	C 	0.85558 0.79203 0.75280 0.29200
O 	O 	0.93221 0.71412 0.56938 -0.39000
C 	C 	0.96037 0.65925 0.55447 0.35500
C 	C 	0.94186 0.87039 0.76583 0.31200
Eu	Eu	0.09090 0.27481 0.16510 1.93300
O 	O 	0.14625 0.15508 0.22453 -0.28400
C 	C 	0.15359 0.36525 0.20868 0.36500
O 	O 	0.07577 0.27055 -0.00478 -0.28800
O 	O 	0.06145 0.18647 0.09907 -0.40900
O 	O 	0.04337 0.40366 0.07891 -0.30100
O 	O 	0.16322 0.32982 0.15194 -0.28400
O 	O 	0.11984 0.36222 0.23352 -0.42100
O 	O 	0.09322 0.18274 0.27315 -0.40500
C 	C 	0.12556 0.13829 0.27548 0.32600
O 	O 	0.03980 0.33925 0.20076 -0.39500
C 	C 	0.02834 0.39989 0.14135 0.31900
C 	C 	0.05881 0.21442 0.01999 0.35500
Eu	Eu	0.62856 0.23145 0.83460 1.89100
O 	O 	0.66067 0.19411 0.64725 -0.16000
C 	C 	0.70086 0.28209 0.81093 0.33700
O 	O 	0.57614 0.27260 0.96251 -0.25800
O 	O 	0.59160 0.15441 0.90628 -0.39700
O 	O 	0.61320 0.40659 0.73564 -0.23300
O 	O 	0.70130 0.22732 0.86408 -0.30300
O 	O 	0.66943 0.30569 0.77179 -0.38500
O 	O 	0.63371 0.13155 0.74750 -0.36400
C 	C 	0.66298 0.14114 0.70240 0.30300
O 	O 	0.58194 0.29621 0.76278 -0.39000
C 	C 	0.58547 0.37737 0.73255 0.36100
C 	C 	0.58080 0.19676 0.97014 0.29400
C 	C 	0.29885 0.61713 0.37389 -0.13000
N 	N 	0.27970 0.55181 0.34451 -0.09500
C 	C 	0.24653 0.54690 0.38448 -0.01600
C 	C 	0.22297 0.49772 0.33868 -0.00200
C 	C 	0.21259 0.42040 0.37050 0.09700
Cl	Cl	0.22784 0.37588 0.46416 -0.22800
C 	C 	0.18993 0.37729 0.32756 0.17600
Cl	Cl	0.17711 0.28081 0.36803 -0.25400
C 	C 	0.17793 0.41006 0.25225 -0.13500
C 	C 	0.18842 0.48643 0.21986 0.17200
Cl	Cl	0.17290 0.52839 0.12561 -0.23600
C 	C 	0.21068 0.53037 0.26300 0.10200
Cl	Cl	0.22236 0.62821 0.22249 -0.22100
H 	H 	0.28208 0.67646 0.37096 0.10100
H 	H 	0.30740 0.59989 0.43595 0.10100
H 	H 	0.29441 0.49496 0.35717 0.11300
H 	H 	0.23296 0.60971 0.38825 0.08200
H 	H 	0.25142 0.52012 0.44594 0.08600
C 	C 	0.84523 0.87150 0.78811 -0.12200
N 	N 	0.80892 0.90013 0.76833 -0.10000
C 	C 	0.80079 0.98348 0.79381 -0.00600
C 	C 	0.76414 0.01647 0.76886 -0.01300
C 	C 	0.73682 0.01473 0.82258 0.10400
Cl	Cl	0.74381 -0.03660 0.91767 -0.22700
C 	C 	0.70361 0.05315 0.80092 0.16300
Cl	Cl	0.67118 0.05031 0.87332 -0.32900
C 	C 	0.69714 0.09338 0.72430 -0.12200
C 	C 	0.72413 0.08807 0.66871 0.16200
Cl	Cl	0.71717 0.12626 0.56892 -0.18700
C 	C 	0.75733 0.05092 0.69138 0.10400
Cl	Cl	0.79077 1.04831 0.62151 -0.22200
H 	H 	0.86269 0.91851 0.76440 0.08300
H 	H 	0.84945 0.86152 0.85294 0.09100
H 	H 	0.79323 0.86007 0.79992 0.12500
H 	H 	0.81920 0.02668 0.76778 0.07500
H 	H 	0.80493 0.98292 0.85828 0.08300
C 	C 	0.13462 0.07002 0.33926 -0.12700
N 	N 	0.17097 0.03788 0.33188 -0.09500
C 	C 	0.17734 -0.04907 0.36348 -0.01700
C 	C 	0.21349 0.91802 0.34091 -0.00300
C 	C 	0.23950 0.89141 0.39833 0.10000
Cl	Cl	0.23054 0.89216 0.49983 -0.22600
C 	C 	0.27303 0.86333 0.37567 0.15900
Cl	Cl	0.30326 0.82240 0.45075 -0.25400
C 	C 	0.28161 0.86427 0.29496 -0.11900
C 	C 	0.25531 0.89139 0.23764 0.16600
Cl	Cl	0.26417 0.89797 0.13578 -0.19800
C 	C 	0.22151 0.91577 0.26057 0.11000
Cl	Cl	0.18888 -0.05623 0.18704 -0.22300
H 	H 	0.11661 0.02096 0.33281 0.09900
H 	H 	0.13070 0.09489 0.39772 0.10700
H 	H 	0.18675 0.07413 0.36241 0.12800
H 	H 	0.15838 -0.08788 0.33799 0.08300
H 	H 	0.17335 -0.05328 0.42792 0.08700
C 	C 	0.88602 0.45168 0.74790 -0.13400
N 	N 	0.84820 0.45110 0.74443 -0.09700
C 	C 	0.83861 0.36857 0.72871 -0.01400
C 	C 	0.80120 0.35987 0.74936 -0.00800
C 	C 	0.77527 0.36207 0.69063 0.10400
Cl	Cl	0.78454 0.38994 0.59136 -0.21700
C 	C 	0.74169 0.34137 0.71039 0.16300
Cl	Cl	0.71055 0.34083 0.63433 -0.18800
C 	C 	0.73361 0.31980 0.78960 -0.12100
C 	C 	0.75867 0.32705 0.84893 0.16300
Cl	Cl	0.74815 0.31452 0.94966 -0.22300
C 	C 	0.79227 0.34613 0.82897 0.10400
Cl	Cl	0.82346 0.35096 0.90472 -0.22400
H 	H 	0.89667 0.41026 0.79969 0.10600
H 	H 	0.89785 0.42763 0.69428 0.09800
H 	H 	0.83816 0.49351 0.69821 0.12300
H 	H 	0.85481 0.31957 0.76495 0.07800
H 	H 	0.84397 0.35650 0.66702 0.08400
C 	C 	0.44057 0.70627 0.53375 -0.13800
N 	N 	0.47222 0.65164 0.55609 -0.09600
C 	C 	0.46398 0.56802 0.58696 -0.01600
C 	C 	0.49597 0.51920 0.62553 -0.00700
C 	C 	0.49906 0.50467 0.70825 0.10000
Cl	Cl	0.46706 0.54683 0.77018 -0.23000
C 	C 	0.52843 0.45787 0.74293 0.17000
Cl	Cl	0.53228 0.44049 0.84649 -0.23300
C 	C 	0.55518 0.42714 0.69565 -0.12800
C 	C 	0.55263 0.44252 0.61355 0.17000
Cl	Cl	0.58632 0.40348 0.55388 -0.20300
C 	C 	0.52318 0.48867 0.57861 0.10500
Cl	Cl	0.52051 0.50738 0.47531 -0.22100
H 	H 	0.41915 0.69551 0.57521 0.09700
H 	H 	0.44616 0.77211 0.53676 0.10600
H 	H 	0.48392 0.67808 0.60214 0.11600
H 	H 	0.45441 0.53320 0.53903 0.09500
H 	H 	0.44237 0.57278 0.62899 0.08400
C 	C 	0.94267 0.96279 0.75454 -0.13400
N 	N 	0.96660 0.99104 0.81173 -0.10000
C 	C 	0.96429 1.08227 0.80521 -0.01500
C 	C 	-0.01061 0.11283 0.86227 -0.00100
C 	C 	0.02335 0.12715 0.83922 0.09500
Cl	Cl	0.03809 0.10378 0.74556 -0.23600
C 	C 	0.04620 0.15919 0.89110 0.17800
Cl	Cl	0.08911 0.17332 0.86130 -0.21800
C 	C 	0.03533 0.17747 -0.03347 -0.14000
C 	C 	0.00160 0.16116 -0.00962 0.17200
Cl	Cl	-0.01339 0.18647 0.08331 -0.23900
C 	C 	-0.02101 0.12762 -0.06098 0.08900
Cl	Cl	0.93747 1.10448 -0.02775 -0.22800
H 	H 	0.91588 0.99119 0.76220 0.08600
H 	H 	0.95050 0.98146 0.69326 0.09700
H 	H 	0.99179 0.96953 0.79730 0.12000
H 	H 	0.93740 1.10778 0.81650 0.08100
H 	H 	-0.03054 1.10720 0.74426 0.08000
C 	C 	0.57769 0.15076 1.04947 -0.11500
N 	N 	0.55209 0.08928 1.04742 -0.09400
C 	C 	0.54714 0.05259 0.12755 -0.02000
C 	C 	0.52112 0.98775 0.12912 -0.01300
C 	C 	0.53192 0.90261 0.14421 0.10400
Cl	Cl	0.57641 0.86711 0.14374 -0.22400
C 	C 	0.50732 0.84442 0.15970 0.16300
Cl	Cl	0.52236 0.73977 0.18824 -0.21800
C 	C 	0.47148 0.87080 0.15720 -0.12100
C 	C 	0.46079 0.95480 0.13296 0.15300
Cl	Cl	0.41642 0.98857 1.11670 -0.20900
C 	C 	0.48544 1.01306 1.11995 0.12000
Cl	Cl	0.47145 0.11861 1.09400 -0.21800
H 	H 	0.57013 0.19608 0.09300 0.09600
H 	H 	0.60375 0.11947 1.06723 0.08400
H 	H 	0.56255 0.04187 1.01457 0.12700
H 	H 	0.53751 0.10162 0.16537 0.08400
H 	H 	0.57234 0.02656 0.15434 0.08300
C 	C 	-0.00271 0.45958 0.15263 -0.13400
N 	N 	0.00060 0.49825 0.22674 -0.09600
C 	C 	-0.03097 0.55223 0.23956 -0.01500
C 	C 	0.96946 0.58044 0.32164 -0.00500
C 	C 	0.97212 0.66441 0.33440 0.10000
Cl	Cl	0.97910 0.73863 0.25547 -0.23500
C 	C 	0.96939 0.68993 0.41078 0.17200
Cl	Cl	0.97140 0.79596 0.42595 -0.22700
C 	C 	0.96552 0.63136 0.47522 -0.13100
C 	C 	0.96443 0.54704 0.46308 0.17100
Cl	Cl	0.95871 0.47321 0.54330 -0.25700
C 	C 	0.96591 0.52190 0.38669 0.10200
Cl	Cl	-0.03865 0.41682 0.37267 -0.22300
H 	H 	-0.02600 0.42408 0.15356 0.11000
H 	H 	-0.00538 0.50890 0.10286 0.09100
H 	H 	0.02123 0.53608 0.22161 0.10800
H 	H 	0.94552 0.51823 0.23298 0.08400
H 	H 	-0.03382 0.60450 0.19326 0.08000
