data_crystal

_cell_length_a 35.07010
_cell_length_b 21.24110
_cell_length_c 12.72770
_cell_angle_alpha 88.87130
_cell_angle_beta  89.95830
_cell_angle_gamma 87.76110

_symmetry_space_group_name_	'P 1'
_symmetry_space_group_name_H-M	'P 1'

loop_
_symmetry_equiv_pos_as_xyz
  x,y,z

loop_
_atom_site_label
_atom_site_type_symbol
_atom_site_fract_x
_atom_site_fract_y
_atom_site_fract_z
_atom_site_charge
Eu	Eu	0.40136 0.73813 0.26509 1.77200
O 	O 	0.34347 0.81043 0.13985 -0.33000
C 	C 	0.33320 0.64871 0.26663 0.28900
O 	O 	0.42236 0.78024 0.04033 -0.31800
O 	O 	0.44915 0.79590 0.19817 -0.44500
O 	O 	0.49096 0.70366 0.40854 -0.24400
O 	O 	0.34716 0.63787 0.18088 -0.32200
O 	O 	0.35216 0.68569 0.33684 -0.44700
O 	O 	0.36786 0.82928 0.29903 -0.42700
C 	C 	0.34237 0.84301 0.21750 0.31700
O 	O 	0.42996 0.73905 0.42597 -0.40900
C 	C 	0.45854 0.69183 0.43470 0.24200
C 	C 	0.44234 0.81262 0.09371 0.31700
Eu	Eu	0.89273 0.74656 0.76977 1.81400
O 	O 	0.84392 0.85503 0.79632 -0.32900
C 	C 	0.82112 0.66563 0.79834 0.28200
O 	O 	0.92141 0.85710 0.88322 -0.31600
O 	O 	0.95298 0.77923 0.79799 -0.43000
O 	O 	0.95327 0.64767 0.77065 -0.32700
O 	O 	0.84541 0.62926 0.83579 -0.31800
O 	O 	0.83183 0.71804 0.74022 -0.43800
O 	O 	0.87976 0.82909 0.65685 -0.41900
C 	C 	0.85081 0.86514 0.70375 0.28800
O 	O 	0.91476 0.68295 0.63921 -0.43700
C 	C 	0.94421 0.64367 0.67875 0.32000
C 	C 	0.95213 0.83327 0.85800 0.27900
Eu	Eu	0.11089 0.25438 0.20450 1.78000
O 	O 	0.17096 0.15190 0.17051 -0.31100
C 	C 	0.17274 0.34897 0.16169 0.32300
O 	O 	0.03166 0.21523 0.14158 -0.32700
O 	O 	0.08431 0.15866 0.19248 -0.43500
O 	O 	0.03423 0.34247 0.26556 -0.27600
O 	O 	0.18141 0.30473 0.10597 -0.34300
O 	O 	0.13846 0.34908 0.21633 -0.45400
O 	O 	0.15687 0.21037 0.31193 -0.42200
C 	C 	0.17636 0.16067 0.26356 0.29200
O 	O 	0.07675 0.27786 0.35163 -0.41300
C 	C 	0.05650 0.33504 0.33857 0.26800
C 	C 	0.04844 0.16399 0.14628 0.31100
Eu	Eu	0.61203 0.25119 0.81226 1.82300
O 	O 	0.64789 0.13728 0.87890 -0.36000
C 	C 	0.64973 0.37693 0.85755 0.32100
O 	O 	0.56378 0.15340 0.93137 -0.31600
O 	O 	0.56516 0.18675 0.76211 -0.42600
O 	O 	0.54146 0.31614 0.76155 -0.33100
O 	O 	0.61591 0.39213 0.86062 -0.32000
O 	O 	0.66079 0.31346 0.85632 -0.46300
O 	O 	0.65479 0.18811 0.72488 -0.43500
C 	C 	0.66380 0.13830 0.79390 0.31800
O 	O 	0.59672 0.31621 0.67274 -0.43500
C 	C 	0.55964 0.33925 0.68995 0.32200
C 	C 	0.55557 0.14359 0.84029 0.29100
C 	C 	0.29610 0.62356 0.29768 -0.05000
C 	C 	0.28100 0.57200 0.24693 -0.02500
C 	C 	0.24591 0.54799 0.27920 0.02200
C 	C 	0.23101 0.49157 0.22862 0.03600
N 	N 	0.24997 0.46223 0.15031 -0.13700
C 	C 	0.23175 0.41152 0.11898 0.15700
C 	C 	0.24724 0.37127 0.03233 -0.22800
C 	C 	0.19835 0.40167 0.17434 -0.14100
S 	S 	0.18950 0.45745 0.26690 0.03600
C 	C 	0.22561 0.57767 0.36114 -0.08000
C 	C 	0.24027 0.62954 0.41190 0.08200
N 	N 	0.21956 0.65933 0.49639 -0.13500
C 	C 	0.23429 0.68909 0.57849 0.01700
C 	C 	0.20457 0.71047 0.64042 0.01300
N 	N 	0.17119 0.69467 0.59770 -0.11500
C 	C 	0.18140 0.66356 0.51000 0.08800
C 	C 	0.27558 0.65184 0.37994 -0.04900
H 	H 	0.29683 0.55025 0.18321 0.05700
H 	H 	0.27380 0.39090 0.00004 0.08600
H 	H 	0.25401 0.32285 0.06292 0.09300
H 	H 	0.22600 0.36971 -0.03211 0.08700
H 	H 	0.19856 0.56019 0.38692 0.05900
H 	H 	0.26436 0.69421 0.59354 0.02700
H 	H 	0.20711 0.73595 0.71262 0.03800
H 	H 	0.16096 0.64493 0.45633 0.01600
H 	H 	0.28664 0.69253 0.41774 0.05700
C 	C 	0.82732 0.91268 0.64352 -0.04400
C 	C 	0.79724 0.94537 0.69388 -0.02700
C 	C 	0.77318 0.98873 0.63886 0.02100
C 	C 	0.74148 0.02126 0.69587 0.03600
N 	N 	0.73049 0.00004 0.79102 -0.13800
C 	C 	0.70281 0.03708 0.83165 0.15500
C 	C 	0.68636 0.02242 0.93762 -0.22600
C 	C 	0.69229 0.08820 0.76686 -0.13600
S 	S 	0.71755 0.08884 0.65150 0.03000
C 	C 	0.77958 0.99949 0.53123 -0.08000
C 	C 	0.80946 0.96689 0.47868 0.08100
N 	N 	0.81505 0.97662 0.36728 -0.13400
C 	C 	0.84770 0.96831 0.31288 0.01600
C 	C 	0.84013 0.98205 0.20868 0.01200
N 	N 	0.80289 0.99879 0.19693 -0.11600
C 	C 	0.78846 0.99502 0.29507 0.08500
C 	C 	0.83334 0.92369 0.53583 -0.05000
H 	H 	0.79239 0.93665 0.77689 0.06000
H 	H 	0.69183 0.06112 0.99236 0.09000
H 	H 	0.65520 0.01610 0.93061 0.09200
H 	H 	0.69977 -0.02190 0.97062 0.08300
H 	H 	0.76126 0.03300 0.48824 0.05500
H 	H 	0.87519 0.95410 0.34602 0.03000
H 	H 	0.86052 0.97998 0.14495 0.03600
H 	H 	0.75865 1.00475 0.31259 0.01500
H 	H 	0.85595 0.89750 0.49605 0.05900
C 	C 	0.20286 0.11853 0.32523 -0.04700
C 	C 	0.22476 0.07085 0.27604 -0.02600
C 	C 	0.24941 0.02998 0.33468 0.02100
C 	C 	0.27215 0.97965 0.28128 0.03700
N 	N 	0.26626 0.96634 0.17970 -0.13600
C 	C 	0.28964 0.91900 0.14826 0.15900
C 	C 	0.28846 0.89585 0.03800 -0.23000
C 	C 	0.31399 0.89564 0.22690 -0.13700
S 	S 	0.30738 0.93406 0.34251 0.03400
C 	C 	0.25177 0.03726 0.44402 -0.08100
C 	C 	0.22993 0.08445 0.49475 0.08200
N 	N 	0.23197 0.09061 0.60725 -0.13400
C 	C 	0.22492 0.14299 0.66301 0.01600
C 	C 	0.22971 0.12757 0.76781 0.01200
N 	N 	0.23963 0.06584 0.77858 -0.11600
C 	C 	0.24078 0.04480 0.67926 0.08600
C 	C 	0.20566 0.12500 0.43449 -0.04900
H 	H 	0.22266 0.06575 0.19176 0.06100
H 	H 	0.26697 0.92405 -0.00888 0.09000
H 	H 	0.31680 0.90046 0.00037 0.09400
H 	H 	0.28043 0.84583 0.03829 0.09600
H 	H 	0.27071 0.00640 0.49013 0.05600
H 	H 	0.21725 0.18924 0.63050 0.02700
H 	H 	0.22613 0.15942 0.83263 0.03300
H 	H 	0.24734 -0.00389 0.66052 0.01600
H 	H 	0.18818 0.16062 0.47324 0.05900
C 	C 	0.78013 0.65528 0.81387 -0.05100
C 	C 	0.76663 0.59448 0.82894 -0.02600
C 	C 	0.72729 0.58510 0.83937 0.02000
C 	C 	0.71311 0.52017 0.84670 0.03600
N 	N 	0.73662 0.46911 0.83499 -0.13700
C 	C 	0.71746 0.41572 0.83904 0.15300
C 	C 	0.73756 0.35295 0.82401 -0.22200
C 	C 	0.67849 0.42586 0.85423 -0.13900
S 	S 	0.66584 0.50411 0.86335 0.03100
C 	C 	0.70174 0.63796 0.83879 -0.08100
C 	C 	0.71491 0.69925 0.82500 0.08200
N 	N 	0.68858 0.75324 0.82369 -0.13400
C 	C 	0.69618 0.81304 0.84712 0.01700
C 	C 	0.66315 0.84950 0.83478 0.01500
N 	N 	0.63474 0.81320 0.80371 -0.11400
C 	C 	0.65119 0.75487 0.79786 0.08800
C 	C 	0.75414 0.70719 0.81141 -0.05000
H 	H 	0.78676 0.55446 0.82980 0.05600
H 	H 	0.76843 0.35911 0.80940 0.08200
H 	H 	0.73455 0.32278 0.89550 0.08600
H 	H 	0.72551 0.32934 0.75513 0.08400
H 	H 	0.67154 0.63171 0.84912 0.05600
H 	H 	0.72345 0.82921 0.87293 0.03000
H 	H 	0.65990 0.89957 0.84784 0.03400
H 	H 	0.63586 0.71441 0.77350 0.01800
H 	H 	0.76459 0.75403 0.79889 0.05600
C 	C 	0.44969 0.62825 0.47574 -0.06000
C 	C 	0.47879 0.58150 0.49142 -0.03100
C 	C 	0.47027 0.52144 0.53092 0.02000
C 	C 	0.50125 0.47408 0.55651 0.03500
N 	N 	0.53709 0.47858 0.51933 -0.13600
C 	C 	0.56023 0.43188 0.55836 0.15600
C 	C 	0.60175 0.42703 0.53081 -0.22500
C 	C 	0.54193 0.39163 0.62716 -0.13300
S 	S 	0.49475 0.41228 0.64228 0.03800
C 	C 	0.43194 0.50758 0.54986 -0.08500
C 	C 	0.40249 0.55335 0.53364 0.08200
N 	N 	0.36321 0.53801 0.55111 -0.13500
C 	C 	0.33387 0.57756 0.57649 0.02000
C 	C 	0.30152 0.54317 0.58486 0.01300
N 	N 	0.31016 0.48232 0.56422 -0.11600
C 	C 	0.34796 0.48082 0.54408 0.08600
C 	C 	0.41187 0.61411 0.49992 -0.06100
H 	H 	0.50819 0.59242 0.47571 0.05800
H 	H 	0.60914 0.46569 0.47536 0.08400
H 	H 	0.61925 0.43062 0.60295 0.09100
H 	H 	0.60846 0.38134 0.49273 0.08800
H 	H 	0.42490 0.46137 0.57924 0.05700
H 	H 	0.33563 0.62753 0.58947 0.03100
H 	H 	0.27329 0.56126 0.60517 0.04100
H 	H 	0.36383 0.43819 0.52313 0.01500
H 	H 	0.38959 0.65022 0.49112 0.04900
C 	C 	0.98807 0.86121 0.89132 -0.04700
C 	C 	0.98756 0.91996 0.94035 -0.02500
C 	C 	0.02163 0.94660 0.97235 0.01800
C 	C 	0.02064 0.00966 0.02108 0.03400
N 	N 	0.98876 0.04721 0.02088 -0.13400
C 	C 	-0.00507 0.10277 0.06492 0.15100
C 	C 	0.96367 0.15251 0.07370 -0.22500
C 	C 	0.03211 0.10795 0.09984 -0.13700
S 	S 	0.05974 0.04148 0.07768 0.03300
C 	C 	0.05646 0.91317 0.95539 -0.08000
C 	C 	0.05755 0.85443 0.90619 0.08000
N 	N 	0.09342 0.82068 0.88855 -0.13400
C 	C 	0.09927 0.75809 0.87820 0.01700
C 	C 	0.13762 0.74595 0.86237 0.01500
N 	N 	0.15605 0.80044 0.86246 -0.11700
C 	C 	0.12831 0.84499 0.87868 0.08700
C 	C 	1.02315 0.82900 0.87423 -0.04800
H 	H 	0.96053 0.94506 0.95334 0.05900
H 	H 	0.93652 0.13499 0.04286 0.08500
H 	H 	0.95939 0.16497 0.15731 0.09300
H 	H 	0.97098 0.19512 0.02720 0.09100
H 	H 	0.08287 0.93262 0.98069 0.05600
H 	H 	0.07755 0.72334 0.88336 0.03000
H 	H 	0.15139 0.70007 0.85166 0.03500
H 	H 	0.13378 0.89469 0.88179 0.01700
H 	H 	1.02371 0.78413 0.83532 0.06300
C 	C 	0.53636 0.08562 0.81135 -0.04700
C 	C 	0.52002 0.04669 0.88813 -0.02700
C 	C 	0.50314 -0.00961 0.86010 0.02200
C 	C 	0.48634 0.94923 0.94199 0.03600
N 	N 	0.48177 0.96818 0.04175 -0.13600
C 	C 	0.46645 0.92327 0.10188 0.15800
C 	C 	0.45629 0.93438 0.21443 -0.22900
C 	C 	0.45932 0.86906 0.04774 -0.13400
S 	S 	0.47131 0.87475 0.91806 0.03800
C 	C 	0.50273 -0.02638 0.75377 -0.08100
C 	C 	0.51916 0.01177 0.67611 0.08400
N 	N 	0.52007 -0.00720 0.56793 -0.13500
C 	C 	0.52261 0.03024 0.48187 0.01800
C 	C 	0.52429 -0.00741 0.39522 0.00900
N 	N 	0.52279 0.93165 0.42590 -0.11400
C 	C 	0.52013 0.93349 0.53152 0.08900
C 	C 	0.53558 0.06796 0.70571 -0.04900
H 	H 	0.52060 0.06022 -0.03024 0.05800
H 	H 	0.46220 0.98349 0.23559 0.08700
H 	H 	0.42544 0.92705 0.22703 0.08600
H 	H 	0.47336 0.90163 0.26628 0.10100
H 	H 	0.48915 0.93124 0.73065 0.05900
H 	H 	0.52295 0.08117 0.48139 0.02900
H 	H 	0.52654 0.00862 0.31438 0.03300
H 	H 	0.51901 0.89155 0.58088 0.02300
H 	H 	0.54890 0.09707 0.64658 0.05900
C 	C 	0.06324 0.38702 0.41052 -0.04600
C 	C 	0.03383 0.43084 0.43531 -0.02700
C 	C 	0.04045 0.48026 0.50382 0.02000
C 	C 	0.00875 0.52460 0.53364 0.03400
N 	N 	0.97672 0.53223 0.47555 -0.13400
C 	C 	0.95203 0.57414 0.51869 0.15400
C 	C 	0.91389 0.58990 0.47006 -0.22500
C 	C 	0.96514 0.59838 0.61164 -0.13200
S 	S 	0.00943 0.56826 0.64555 0.03100
C 	C 	0.07743 0.48685 0.54385 -0.08100
C 	C 	0.10766 0.44477 0.51654 0.07900
N 	N 	0.14612 0.45452 0.55210 -0.13400
C 	C 	0.17592 0.41248 0.55436 0.01500
C 	C 	0.20739 0.44222 0.59027 0.01100
N 	N 	0.19776 0.50271 0.61077 -0.11600
C 	C 	0.16031 0.50860 0.58683 0.08200
C 	C 	0.09990 0.39406 0.45158 -0.04600
H 	H 	0.00556 0.42537 0.40341 0.05700
H 	H 	0.90967 0.56075 0.39985 0.08300
H 	H 	0.89087 0.58036 0.52749 0.08700
H 	H 	0.91213 0.64031 0.44520 0.09000
H 	H 	0.08274 0.52517 0.59572 0.05500
H 	H 	0.17518 0.36356 0.53275 0.02800
H 	H 	0.23570 0.42105 0.60120 0.03800
H 	H 	0.14401 0.55257 0.59361 0.01700
H 	H 	0.12269 0.36133 0.42897 0.04900
