data_crystal

_cell_length_a 22.11340
_cell_length_b 10.50210
_cell_length_c 9.48100
_cell_angle_alpha 78.61080
_cell_angle_beta  84.99510
_cell_angle_gamma 95.19890

_symmetry_space_group_name_	'P 1'
_symmetry_space_group_name_H-M	'P 1'

loop_
_symmetry_equiv_pos_as_xyz
  x,y,z

loop_
_atom_site_label
_atom_site_type_symbol
_atom_site_fract_x
_atom_site_fract_y
_atom_site_fract_z
_atom_site_charge
Eu	Eu	0.38235 0.78519 0.25950 1.94200
O 	O 	0.28050 0.94728 0.26998 -0.22900
C 	C 	0.32248 0.62787 0.05635 0.22300
O 	O 	0.48402 1.00095 1.24772 -0.24500
O 	O 	0.39251 0.95084 0.38199 -0.33200
O 	O 	0.50727 0.70345 0.31522 -0.18900
O 	O 	0.29118 0.71785 0.05726 -0.17400
O 	O 	0.37219 0.61904 0.13740 -0.32300
O 	O 	0.28421 0.73396 0.36483 -0.30400
C 	C 	0.25379 0.84560 0.34265 0.25500
O 	O 	0.41534 0.65049 0.44909 -0.29200
C 	C 	0.47881 0.65712 0.43329 0.26400
C 	C 	0.44533 1.03467 0.32851 0.23000
Eu	Eu	0.87142 0.81120 0.63378 2.03500
O 	O 	0.67751 0.77382 0.72275 -0.10000
C 	C 	0.84452 0.54921 0.88119 0.26700
O 	O 	-0.04825 0.87885 -0.14246 -0.17500
O 	O 	0.97074 0.89908 0.61601 -0.34600
O 	O 	0.95767 0.60019 0.58215 -0.12200
O 	O 	0.79250 0.57867 0.88322 -0.16900
O 	O 	0.89298 0.63571 0.80243 -0.30100
O 	O 	0.77120 0.73434 0.63957 -0.35000
C 	C 	0.73269 0.79836 0.71983 0.20700
O 	O 	0.89624 0.71705 0.44022 -0.34200
C 	C 	0.94264 0.63555 0.46103 0.26900
C 	C 	0.98685 0.92197 0.74821 0.25200
Eu	Eu	0.11754 0.26579 0.09193 2.20100
O 	O 	0.18996 0.03577 0.12979 -0.16300
C 	C 	0.24346 0.36493 0.18000 0.21900
O 	O 	0.96115 0.11185 0.94106 -0.01900
O 	O 	0.04034 0.26026 -0.05359 -0.30500
O 	O 	0.07823 0.52446 0.14985 -0.12100
O 	O 	0.28533 0.37919 0.25327 -0.05200
O 	O 	0.19279 0.27649 0.24106 -0.31700
O 	O 	0.09264 0.05399 0.20927 -0.31200
C 	C 	0.14396 -0.01375 0.20896 0.35000
O 	O 	0.05014 0.31422 0.26338 -0.32100
C 	C 	0.05117 0.44808 0.25514 0.26000
C 	C 	0.01648 0.13634 -0.06792 0.19900
Eu	Eu	0.61862 0.26570 0.93980 2.00900
O 	O 	0.67089 0.07024 0.73151 -0.13100
C 	C 	0.75580 0.29246 0.94569 0.23800
O 	O 	0.55097 0.39027 0.15089 -0.19400
O 	O 	0.52052 0.22500 1.04426 -0.34600
O 	O 	0.57605 0.49548 0.78123 -0.21000
O 	O 	0.73387 0.26634 1.07221 -0.18200
O 	O 	0.71707 0.30782 0.83664 -0.35000
O 	O 	0.62148 0.04675 0.95579 -0.32700
C 	C 	0.66749 0.01930 0.85978 0.30100
O 	O 	0.58278 0.30066 0.71961 -0.31400
C 	C 	0.56460 0.42588 0.69569 0.26200
C 	C 	0.51106 0.30430 1.14348 0.26500
C 	C 	0.30727 0.52604 -0.03109 0.42000
F 	F 	0.30448 0.58889 -0.17285 -0.31700
F 	F 	0.35340 0.44512 -0.03068 -0.31400
C 	C 	0.24565 0.44225 0.02687 0.34900
F 	F 	0.19917 0.52223 0.02057 -0.41800
F 	F 	0.23482 0.35499 -0.06237 -0.41600
C 	C 	0.75937 0.89490 0.80352 0.31500
F 	F 	0.80590 0.84082 0.87475 -0.45600
F 	F 	0.78505 0.00761 0.70718 -0.37400
C 	C 	0.71248 0.92795 0.91881 0.30300
F 	F 	0.68035 0.81343 0.99909 -0.35700
F 	F 	0.74414 -0.01345 1.01302 -0.27500
C 	C 	0.14166 0.85199 0.30299 0.30000
F 	F 	0.08440 -0.17838 0.38050 -0.20900
F 	F 	0.14935 0.76231 0.21555 -0.32000
C 	C 	0.18963 0.84235 0.41261 0.35900
F 	F 	0.18732 -0.05644 0.48635 -0.25300
F 	F 	0.17531 0.72578 0.51281 -0.28200
C 	C 	0.85719 0.41811 0.96392 0.38700
F 	F 	0.91947 0.40941 0.94679 -0.31100
F 	F 	0.83952 0.40816 1.10979 -0.32100
C 	C 	0.82399 0.30496 0.90837 0.39800
F 	F 	0.83746 0.32466 0.75949 -0.34200
F 	F 	0.84488 0.18850 0.96976 -0.29600
C 	C 	0.51205 0.61196 0.56253 0.39600
F 	F 	0.47406 0.61272 0.68665 -0.33600
F 	F 	0.56357 0.69927 0.55683 -0.36200
C 	C 	0.53052 0.47289 0.56762 0.40200
F 	F 	0.47838 0.38690 0.57663 -0.28700
F 	F 	0.56735 0.47066 0.44242 -0.33800
C 	C 	0.04813 0.99688 -0.24671 0.33000
F 	F 	0.09291 0.91933 -0.27716 -0.29800
F 	F 	0.05541 1.10905 0.64535 -0.35800
C 	C 	0.05733 0.03539 -0.09987 0.45300
F 	F 	1.04600 -0.07492 0.01023 -0.31500
F 	F 	0.11763 0.08631 -0.10428 -0.41000
C 	C 	0.45305 0.28082 0.24488 0.44600
F 	F 	0.44552 0.39245 0.29876 -0.31400
F 	F 	0.40376 0.25733 0.16942 -0.33900
C 	C 	0.45479 1.16478 0.37264 0.33100
F 	F 	0.51021 1.17484 0.42986 -0.37800
F 	F 	0.40892 1.16963 0.48028 -0.32000
C 	C 	0.02148 0.49650 0.38006 0.41600
F 	F 	-0.00722 0.38968 0.48142 -0.31400
F 	F 	0.06689 0.55745 0.44315 -0.30500
C 	C 	0.97411 0.59201 0.33362 0.37600
F 	F 	0.93033 0.53136 0.26597 -0.32700
F 	F 	0.00265 0.70227 0.23712 -0.31000
