data_crystal

_cell_length_a 38.98810
_cell_length_b 20.72400
_cell_length_c 10.09130
_cell_angle_alpha 89.45090
_cell_angle_beta  84.01800
_cell_angle_gamma 91.47990

_symmetry_space_group_name_	'P 1'
_symmetry_space_group_name_H-M	'P 1'

loop_
_symmetry_equiv_pos_as_xyz
  x,y,z

loop_
_atom_site_label
_atom_site_type_symbol
_atom_site_fract_x
_atom_site_fract_y
_atom_site_fract_z
_atom_site_charge
Eu	Eu	0.39860 0.73272 0.18524 1.74900
O 	O 	0.34974 0.84052 0.11945 -0.31200
C 	C 	0.32112 0.71835 0.24779 0.34300
O 	O 	0.46763 0.80472 0.19208 -0.27200
O 	O 	0.44850 0.73532 0.04372 -0.45800
O 	O 	0.40439 0.62781 0.39906 -0.34500
O 	O 	0.32682 0.70064 0.13283 -0.36700
O 	O 	0.34858 0.72802 0.32351 -0.44600
O 	O 	0.40125 0.84307 0.20220 -0.40400
C 	C 	0.37130 0.87217 0.17069 0.27100
O 	O 	0.42886 0.72767 0.36568 -0.42500
C 	C 	0.42562 0.66782 0.42955 0.33600
C 	C 	0.47200 0.78142 0.08157 0.27300
Eu	Eu	0.87437 0.73851 0.63870 1.79200
O 	O 	0.85843 0.87643 0.67314 -0.36300
C 	C 	0.79876 0.73097 0.76964 0.29100
O 	O 	0.97331 0.78311 0.76506 -0.25000
O 	O 	0.93226 0.76134 0.62898 -0.43200
O 	O 	0.91946 0.60252 0.35413 -0.25600
O 	O 	0.77402 0.76610 0.77481 -0.26100
O 	O 	0.81650 0.71814 0.64597 -0.44100
O 	O 	0.86907 0.81807 0.48703 -0.44800
C 	C 	0.86266 0.87595 0.55179 0.34100
O 	O 	0.88254 0.66992 0.46252 -0.41800
C 	C 	0.90989 0.62761 0.45931 0.28500
C 	C 	0.94262 0.78200 0.75023 0.29700
Eu	Eu	0.11038 0.23045 0.19077 1.70000
O 	O 	0.19086 0.19923 0.44275 -0.25100
C 	C 	0.15182 0.35826 0.08888 0.28900
O 	O 	0.08554 0.09607 0.09388 -0.32500
O 	O 	0.09419 0.13513 0.29524 -0.43100
O 	O 	0.10324 0.32796 0.44851 -0.27400
O 	O 	0.17571 0.32806 0.12452 -0.29100
O 	O 	0.11986 0.32786 0.08324 -0.44900
O 	O 	0.15084 0.24938 0.33639 -0.39000
C 	C 	0.17297 0.19821 0.35064 0.30200
O 	O 	0.06646 0.27369 0.32633 -0.44700
C 	C 	0.07572 0.29824 0.44589 0.33100
C 	C 	0.07508 0.09952 0.21156 0.25100
Eu	Eu	0.63464 0.22574 0.88604 1.76700
O 	O 	0.66340 0.09096 0.85931 -0.32200
C 	C 	0.70925 0.28141 0.76795 0.27500
O 	O 	0.52296 0.23255 1.02264 -0.25900
O 	O 	0.58065 0.22465 1.00600 -0.43900
O 	O 	0.58734 0.34653 0.88386 -0.28400
O 	O 	0.73701 0.28107 0.70020 -0.24200
O 	O 	0.68991 0.22370 0.78297 -0.41900
O 	O 	0.62334 0.14156 0.75461 -0.44600
C 	C 	0.64790 0.09466 0.76094 0.27900
O 	O 	0.62119 0.29595 0.72454 -0.42600
C 	C 	0.60471 0.35019 0.77651 0.26500
C 	C 	0.54906 0.21982 0.95120 0.34600
C 	C 	0.28544 0.73668 0.30250 -0.25800
C 	C 	0.25801 0.68076 0.31675 0.15200
C 	C 	0.26713 0.62796 0.41649 -0.16000
C 	C 	0.23810 0.57520 0.43292 0.06500
C 	C 	0.20380 0.60583 0.48629 -0.13600
C 	C 	0.19436 0.65775 0.38659 0.06600
C 	C 	0.22308 0.71026 0.36990 -0.16100
C 	C 	0.19039 0.62700 0.25008 -0.15200
C 	C 	0.22469 0.59552 0.19470 0.12200
C 	C 	0.22277 0.56574 0.05413 -0.16900
C 	C 	0.18987 0.52831 0.03706 0.08400
C 	C 	0.18655 0.46242 0.07002 -0.07000
C 	C 	0.15617 0.42746 0.05144 -0.02800
C 	C 	0.12919 0.45918 -0.00261 -0.08300
C 	C 	0.13222 0.52463 -0.03812 0.15100
O 	O 	0.10388 0.55228 -0.09199 -0.20900
C 	C 	0.10687 0.61829 -0.13442 -0.02400
C 	C 	0.16285 0.55902 -0.01818 -0.14000
C 	C 	0.23397 0.54371 0.29689 -0.15200
C 	C 	0.25376 0.64860 0.18091 -0.17700
H 	H 	0.27704 0.77473 0.23554 0.08900
H 	H 	0.28687 0.75933 0.40126 0.09000
H 	H 	0.29198 0.60567 0.38036 0.06200
H 	H 	0.27041 0.64971 0.51491 0.06100
H 	H 	0.24477 0.53767 0.50480 0.00900
H 	H 	0.20632 0.62787 0.58503 0.05300
H 	H 	0.18286 0.56819 0.50120 0.05800
H 	H 	0.16973 0.68002 0.42543 0.00700
H 	H 	0.22528 0.73356 0.46765 0.05700
H 	H 	0.21598 0.74832 0.29983 0.05700
H 	H 	0.18314 0.66443 0.17901 0.05700
H 	H 	0.16899 0.59025 0.26315 0.06500
H 	H 	0.22582 0.60489 -0.02286 0.05800
H 	H 	0.24515 0.53416 0.02938 0.05900
H 	H 	0.20770 0.43870 0.11035 0.05600
H 	H 	0.10552 0.43313 -0.01791 0.06700
H 	H 	0.11078 0.65018 -0.04905 0.03300
H 	H 	0.08252 0.63192 -0.17398 0.04000
H 	H 	0.12827 0.62519 0.78447 0.03500
H 	H 	0.16614 0.60967 -0.04428 0.06000
H 	H 	0.21336 0.50541 0.31074 0.06500
H 	H 	0.25834 0.51993 0.25997 0.05600
H 	H 	0.24800 0.68625 0.10751 0.06700
H 	H 	0.27805 0.62555 0.14109 0.07500
C 	C 	0.86300 0.93717 0.47075 -0.26100
C 	C 	0.83179 0.98132 0.50193 0.15700
C 	C 	0.83243 1.01353 0.64007 -0.17000
C 	C 	0.80206 0.05951 0.66433 0.07500
C 	C 	0.80502 0.11248 0.55509 -0.14300
C 	C 	0.80386 0.08117 0.41768 0.07300
C 	C 	0.83414 1.03527 0.39272 -0.16900
C 	C 	0.76956 0.04261 0.41361 -0.15000
C 	C 	0.76591 0.98895 0.52344 0.11900
C 	C 	0.73192 0.94785 0.51896 -0.17800
C 	C 	0.69961 -0.01301 0.52167 0.09300
C 	C 	0.68483 0.01213 0.64212 -0.07400
C 	C 	0.65750 0.05474 0.64356 -0.02600
C 	C 	0.64198 0.06529 0.52653 -0.08900
C 	C 	0.65524 0.03865 0.40587 0.15400
O 	O 	0.63845 0.05371 0.29282 -0.22000
C 	C 	0.65491 0.03855 0.16448 -0.01400
C 	C 	0.68470 0.00015 0.40340 -0.14400
C 	C 	0.76765 0.02128 0.66144 -0.15200
C 	C 	0.79699 0.94330 0.49879 -0.17800
H 	H 	0.86352 0.92268 0.36514 0.08600
H 	H 	0.88741 0.96454 0.48178 0.07600
H 	H 	0.83014 0.97693 0.72170 0.07500
H 	H 	0.85720 1.04083 0.64504 0.05700
H 	H 	0.80275 0.08227 0.76337 0.00700
H 	H 	0.82960 0.14072 0.55735 0.05600
H 	H 	0.78360 0.14669 0.57363 0.06700
H 	H 	0.80610 0.11947 0.33901 0.00600
H 	H 	0.85900 1.06307 0.39107 0.05400
H 	H 	0.83335 1.01384 0.29263 0.05500
H 	H 	0.76872 0.02075 0.31367 0.05800
H 	H 	0.74788 0.07651 0.42835 0.06500
H 	H 	0.73416 0.91838 0.42707 0.06200
H 	H 	0.72892 0.91267 0.60366 0.06700
H 	H 	0.69573 0.00086 0.73379 0.05600
H 	H 	0.62025 0.09684 0.52746 0.06700
H 	H 	0.68041 0.06411 0.14616 0.02700
H 	H 	0.63839 0.05518 0.08870 0.02800
H 	H 	0.65762 -0.01436 0.15347 0.03400
H 	H 	0.69646 -0.01906 0.31080 0.06500
H 	H 	0.74659 0.05592 0.68163 0.06900
H 	H 	0.76490 -0.01589 0.74245 0.06300
H 	H 	0.79655 0.91954 0.40048 0.06400
H 	H 	0.79457 0.90437 0.57626 0.07600
C 	C 	0.17330 0.14084 0.25901 -0.22300
C 	C 	0.20917 0.12229 0.18831 0.14000
C 	C 	0.20300 0.06813 0.08686 -0.15900
C 	C 	0.23743 0.04738 0.01291 0.07900
C 	C 	0.25541 0.10600 -0.06280 -0.14000
C 	C 	0.26239 0.15932 0.03732 0.06600
C 	C 	0.22789 0.18062 0.11152 -0.15600
C 	C 	0.28592 0.13305 0.13833 -0.15500
C 	C 	0.26813 0.07393 0.21568 0.13200
C 	C 	0.29058 0.04770 0.32179 -0.17500
C 	C 	0.32621 0.02681 0.26806 0.09200
C 	C 	0.33200 0.96193 0.23692 -0.08100
C 	C 	0.36562 0.94080 0.20131 -0.02300
C 	C 	0.39348 0.98517 0.19755 -0.08400
C 	C 	0.38833 1.05019 0.22840 0.13800
O 	O 	0.41785 0.09089 0.22902 -0.20300
C 	C 	0.41358 0.15453 0.28019 -0.02300
C 	C 	0.35430 0.07079 0.26250 -0.13300
C 	C 	0.26072 1.02094 0.11425 -0.16800
C 	C 	0.23314 0.09551 0.28870 -0.17800
H 	H 	0.16179 0.09844 0.31763 0.08000
H 	H 	0.15606 0.15121 0.18114 -0.02200
H 	H 	0.18976 0.02543 0.13919 0.06000
H 	H 	0.18595 0.08526 0.01272 0.05100
H 	H 	0.23239 1.00898 -0.05921 -0.00200
H 	H 	0.23887 0.12452 -0.13734 0.05400
H 	H 	0.28007 0.09135 -0.11851 0.05500
H 	H 	0.27553 0.20131 -0.01758 0.00800
H 	H 	0.21136 0.20081 0.03871 0.05000
H 	H 	0.23321 0.21976 0.18174 0.07100
H 	H 	0.29188 0.17158 0.20892 0.05900
H 	H 	0.31074 0.11911 0.08305 0.06200
H 	H 	0.29329 0.08512 0.39849 0.06300
H 	H 	0.27672 0.00623 0.37620 0.06300
H 	H 	0.31046 0.92752 0.24382 0.05100
H 	H 	0.41959 0.96936 0.17157 0.06700
H 	H 	0.39860 0.18378 0.21473 0.03300
H 	H 	0.43944 0.17780 0.28253 0.04200
H 	H 	0.40075 0.15294 0.38399 0.03300
H 	H 	0.34938 0.12035 0.28891 0.06100
H 	H 	0.28517 1.00487 0.05962 0.06300
H 	H 	0.24797 0.97802 0.16722 0.05700
H 	H 	0.23863 0.13302 0.36196 0.08100
H 	H 	0.21990 0.05413 0.34577 0.06700
C 	C 	0.80799 0.69913 0.89565 -0.24300
C 	C 	0.79713 0.62590 0.91031 0.13600
C 	C 	0.82621 0.58363 0.84458 -0.15400
C 	C 	0.81653 0.51137 0.86395 0.06300
C 	C 	0.81067 0.49471 1.01404 -0.12500
C 	C 	0.78131 0.53555 0.08025 0.05000
C 	C 	0.79117 0.60775 1.06130 -0.14300
C 	C 	0.74787 0.52059 1.01588 -0.13600
C 	C 	0.75313 0.53643 0.86363 0.11900
C 	C 	0.71975 0.52279 0.79409 -0.16700
C 	C 	0.70140 0.45978 0.83774 0.08100
C 	C 	0.71154 0.40153 0.77853 -0.05500
C 	C 	0.69742 0.34226 0.83043 -0.07600
C 	C 	0.67334 0.34224 0.94382 -0.07800
C 	C 	0.66083 0.40003 0.99702 0.14800
O 	O 	0.63519 0.39571 0.10555 -0.21600
C 	C 	0.61152 0.44703 0.12091 -0.01600
C 	C 	0.67510 0.45901 0.94358 -0.13700
C 	C 	0.78334 0.49609 0.79853 -0.15100
C 	C 	0.76339 0.60930 0.84570 -0.17200
H 	H 	0.79510 0.72595 0.98117 0.08000
H 	H 	0.83613 0.70617 0.90189 0.01800
H 	H 	0.83124 0.59519 0.73644 0.04500
H 	H 	0.85014 0.59348 0.89159 0.06100
H 	H 	0.83789 0.48219 0.81658 0.00900
H 	H 	0.83476 0.50427 1.06157 0.05600
H 	H 	0.80398 0.44248 0.02887 0.05000
H 	H 	0.77712 0.52353 0.18855 0.01300
H 	H 	0.81491 0.61855 0.11055 0.05700
H 	H 	0.77017 0.63671 0.11224 0.05400
H 	H 	0.72646 0.54902 0.06530 0.05300
H 	H 	0.74095 0.46864 0.03395 0.06000
H 	H 	0.70156 0.56274 0.81587 0.06400
H 	H 	0.72598 0.52343 0.68374 0.06900
H 	H 	0.73078 0.40249 0.69292 0.05300
H 	H 	0.66381 0.29774 0.99244 -0.10300
H 	H 	0.62443 0.49230 0.14973 0.03100
H 	H 	0.59134 0.43340 0.20246 0.03900
H 	H 	0.59894 0.45429 0.02815 0.04000
H 	H 	0.66726 0.50447 0.98671 0.06500
H 	H 	0.77712 0.44367 0.81074 0.06400
H 	H 	0.78797 0.50683 0.68979 0.06000
H 	H 	0.74219 0.63944 0.89125 0.07000
H 	H 	0.76692 0.62102 0.73724 0.07500
C 	C 	0.44887 0.65354 0.53530 -0.25500
C 	C 	0.47817 0.60629 0.49067 0.14800
C 	C 	0.46366 0.53596 0.48348 -0.15900
C 	C 	0.49334 0.48955 0.44485 0.06400
C 	C 	0.51195 0.50971 0.30756 -0.13500
C 	C 	0.52692 0.57910 0.31441 0.06200
C 	C 	0.49743 0.62595 0.35252 -0.15300
C 	C 	0.55296 0.58179 0.41956 -0.15200
C 	C 	0.53472 0.56159 0.55902 0.12800
C 	C 	0.55990 0.56679 0.66885 -0.17600
C 	C 	0.58837 0.51867 0.65514 0.08900
C 	C 	0.58397 0.45926 0.72317 -0.07700
C 	C 	0.60906 0.41221 0.70332 -0.02200
C 	C 	0.63901 0.42548 0.61655 -0.08600
C 	C 	0.64492 0.48603 0.55429 0.15300
O 	O 	0.67654 0.49640 0.47442 -0.20900
C 	C 	0.68391 0.55880 0.41545 -0.01900
C 	C 	0.61920 0.53275 0.57403 -0.14200
C 	C 	0.51921 0.49196 0.55069 -0.15400
C 	C 	0.50465 0.60809 0.59553 -0.18000
H 	H 	0.43292 0.63466 0.62570 0.08100
H 	H 	0.46062 0.70025 0.56402 0.09300
H 	H 	0.44988 0.52064 0.58140 0.05900
H 	H 	0.44483 0.53256 0.40817 0.06600
H 	H 	0.48266 0.43947 0.43941 0.00800
H 	H 	0.49353 0.50712 0.23060 0.04900
H 	H 	0.53300 0.47591 0.27745 0.05400
H 	H 	0.54030 0.59329 0.21528 0.00600
H 	H 	0.47939 0.62446 0.27400 0.05000
H 	H 	0.50818 0.67617 0.35504 0.06700
H 	H 	0.56429 0.63153 0.42204 0.05900
H 	H 	0.57437 0.54897 0.38852 0.06100
H 	H 	0.57154 0.61633 0.66813 0.07400
H 	H 	0.54505 0.56003 0.76858 0.06300
H 	H 	0.56054 0.44911 0.78889 0.05400
H 	H 	0.65862 0.38944 0.60082 0.07000
H 	H 	0.66494 0.57031 0.34428 0.03000
H 	H 	0.70989 0.55873 0.35907 0.03500
H 	H 	0.68421 0.59617 0.49365 0.03100
H 	H 	0.62251 0.57985 0.52638 0.06300
H 	H 	0.53986 0.45708 0.52294 0.06500
H 	H 	0.50607 0.47607 0.64922 0.05800
H 	H 	0.51535 0.65812 0.60233 0.07600
H 	H 	0.49130 0.59474 0.69545 0.06100
C 	C 	0.91639 0.80073 0.86283 -0.22700
C 	C 	0.92278 0.86837 0.92459 0.15100
C 	C 	0.93374 0.92145 0.81673 -0.16600
C 	C 	0.93866 -0.01266 0.88347 0.06900
C 	C 	0.90436 0.00606 0.96172 -0.13900
C 	C 	0.89366 -0.04544 1.07035 0.07600
C 	C 	0.88872 0.88856 1.00564 -0.16700
C 	C 	0.92183 -0.04950 0.16622 -0.15200
C 	C 	0.95658 0.93157 0.08953 0.10800
C 	C 	0.98500 -0.07572 0.18604 -0.15000
C 	C 	0.99682 -0.01364 0.24713 0.08400
C 	C 	0.02871 0.01526 0.19955 -0.07500
C 	C 	0.04155 0.06938 0.26244 -0.02700
C 	C 	0.02147 0.09661 0.37015 -0.09200
C 	C 	0.98903 0.06993 0.41664 0.15200
O 	O 	0.96972 0.10182 0.52127 -0.21500
C 	C 	0.93396 0.08448 0.54952 -0.01700
C 	C 	0.97756 0.01288 0.35787 -0.14000
C 	C 	0.96706 -0.01691 0.97893 -0.14200
C 	C 	0.95117 0.86523 0.02205 -0.18100
H 	H 	0.91541 0.76293 0.94210 0.06700
H 	H 	0.89067 0.79885 0.82517 -0.03900
H 	H 	0.95835 0.90936 0.75782 0.07200
H 	H 	0.91397 0.92541 0.74570 0.06500
H 	H 	0.94654 0.02489 0.80641 0.01100
H 	H 	0.88394 0.00997 0.89306 0.05500
H 	H 	0.90728 0.05409 1.00804 0.05200
H 	H 	0.86898 -0.03184 1.12625 0.00200
H 	H 	0.86762 0.89160 0.93984 0.06200
H 	H 	0.88037 0.85195 1.08475 0.06000
H 	H 	0.91427 -0.08599 0.24580 0.06100
H 	H 	0.92409 -0.00171 0.21367 0.05700
H 	H 	0.97573 0.88984 0.26811 0.05900
H 	H 	0.00778 0.90164 0.13129 0.05400
H 	H 	0.04386 -0.00525 0.11500 0.05500
H 	H 	0.03049 0.14003 0.41593 0.05700
H 	H 	0.92020 0.09019 0.45911 0.02600
H 	H 	0.92226 0.11717 0.62717 0.03000
H 	H 	0.93071 0.03429 0.58907 0.02800
H 	H 	0.95387 -0.01138 0.39765 0.06300
H 	H 	0.97080 0.03130 1.02356 0.06000
H 	H 	-0.00806 -0.02925 0.92198 0.06100
H 	H 	0.94387 0.82762 0.10021 0.06800
H 	H 	0.97594 0.85082 0.96746 0.08400
C 	C 	0.54577 0.20075 0.80917 -0.26400
C 	C 	0.52777 0.13327 0.79483 0.15500
C 	C 	0.48929 0.13154 0.85479 -0.16300
C 	C 	0.47265 0.06422 0.83512 0.06500
C 	C 	0.47422 0.04978 0.68510 -0.13800
C 	C 	0.51220 0.05071 0.62432 0.07300
C 	C 	0.52897 0.11763 0.64407 -0.16400
C 	C 	0.53203 0.99879 0.69329 -0.15800
C 	C 	0.53062 1.01193 0.84516 0.11600
C 	C 	0.55224 0.96218 0.91505 -0.16800
C 	C 	0.54004 0.89295 0.90437 0.09300
C 	C 	0.51381 0.86801 -0.00310 -0.08100
C 	C 	0.50115 0.80462 -0.01281 -0.02400
C 	C 	0.51569 0.76517 -0.11480 -0.09400
C 	C 	0.54320 0.78818 0.79465 0.15800
O 	O 	0.55738 0.74491 0.69784 -0.21800
C 	C 	0.58334 0.76865 0.59735 -0.01800
C 	C 	0.55517 0.85278 0.80466 -0.14400
C 	C 	0.49217 0.01187 0.90521 -0.13600
C 	C 	0.54669 0.07991 0.86503 -0.17600
H 	H 	0.57159 0.20218 0.75233 0.06900
H 	H 	0.53089 0.23836 0.76279 0.09100
H 	H 	0.48694 0.14137 0.96316 0.08400
H 	H 	0.47480 0.16916 0.80642 0.06600
H 	H 	0.44523 0.06365 0.87835 0.01500
H 	H 	0.45957 0.08618 0.63398 0.05700
H 	H 	0.46188 0.00179 0.66995 0.06000
H 	H 	0.51321 0.04064 0.51592 0.01200
H 	H 	0.51523 0.15492 0.59145 0.06300
H 	H 	0.55612 0.11825 0.59752 0.06800
H 	H 	0.55927 0.99886 0.64772 0.06100
H 	H 	0.52035 0.95058 0.67548 0.06400
H 	H 	0.57975 0.96684 0.87287 0.06200
H 	H 	0.55216 0.97427 0.02224 0.05800
H 	H 	0.50231 0.89921 0.07368 0.05700
H 	H 	0.50583 0.71615 -0.12328 0.06000
H 	H 	0.57292 0.80723 0.53690 0.03300
H 	H 	0.59145 0.72870 0.52937 0.03000
H 	H 	0.60649 0.78656 0.64288 0.03200
H 	H 	0.57582 0.87259 0.73500 0.06500
H 	H 	0.47930 0.96424 0.89157 0.05700
H 	H 	0.49030 0.02103 0.01415 0.06000
H 	H 	0.57404 0.08022 0.82504 0.07300
H 	H 	0.54580 0.08975 0.97345 0.06700
C 	C 	0.05271 0.28509 0.57298 -0.25200
C 	C 	0.01859 0.32293 0.58662 0.15100
C 	C 	0.99878 0.31644 0.46108 -0.15800
C 	C 	0.96473 0.35289 0.48116 0.06600
C 	C 	0.94201 0.32438 0.60285 -0.13800
C 	C 	0.96108 0.33180 0.72849 0.06700
C 	C 	-0.00486 0.29536 0.70937 -0.16400
C 	C 	0.96895 0.40385 0.75213 -0.15000
C 	C 	-0.00802 0.43352 0.63052 0.12100
C 	C 	0.00143 0.50558 0.65552 -0.16900
C 	C 	0.97070 0.54879 0.67527 0.07700
C 	C 	0.95691 0.57420 0.56393 -0.04700
C 	C 	0.92655 0.60944 0.57816 -0.08000
C 	C 	0.91120 0.62195 0.70567 -0.04800
C 	C 	0.92594 0.60196 0.81830 0.13300
O 	O 	0.90905 0.62087 0.94057 -0.22900
C 	C 	0.92094 0.59860 1.06014 -0.02200
C 	C 	0.95573 0.56419 0.80344 -0.13000
C 	C 	0.97257 0.42509 0.50412 -0.15200
C 	C 	0.02608 0.39562 0.61003 -0.17700
H 	H 	0.06727 0.29594 0.65973 0.08400
H 	H 	0.04662 0.23232 0.57736 0.08100
H 	H 	0.01426 0.33762 0.37181 0.07000
H 	H 	0.99337 0.26471 0.44074 0.06700
H 	H 	0.95082 0.34777 0.39082 0.00600
H 	H 	0.93598 0.27251 0.58636 0.05500
H 	H 	0.91707 0.34950 0.61632 0.05400
H 	H 	0.94459 0.31126 0.81617 0.00500
H 	H 	0.98930 0.24315 0.69593 0.06400
H 	H 	0.00854 0.29957 0.80114 0.05300
H 	H 	-0.01798 0.40904 0.84446 0.05500
H 	H 	0.94415 0.42937 0.76825 0.06100
H 	H 	0.01602 0.50853 0.74438 0.06700
H 	H 	0.01935 0.52477 0.57033 0.06500
H 	H 	0.96914 0.56402 0.46543 0.05000
H 	H 	0.88723 0.64657 0.71981 -0.12300
H 	H 	0.91988 0.54499 1.06628 0.04000
H 	H 	0.90290 0.61732 1.14140 0.06200
H 	H 	0.94732 0.61831 1.06992 0.04700
H 	H 	0.96703 0.54597 0.88935 0.06400
H 	H 	0.94762 0.45015 0.51583 0.06400
H 	H 	0.98825 0.44615 0.41497 0.06000
H 	H 	0.04048 0.40109 0.69906 0.06700
H 	H 	0.04286 0.41630 0.52311 0.07300
