data_crystal

_cell_length_a 35.30830
_cell_length_b 21.82270
_cell_length_c 10.61910
_cell_angle_alpha 90.47090
_cell_angle_beta  93.68680
_cell_angle_gamma 85.42750

_symmetry_space_group_name_	'P 1'
_symmetry_space_group_name_H-M	'P 1'

loop_
_symmetry_equiv_pos_as_xyz
  x,y,z

loop_
_atom_site_label
_atom_site_type_symbol
_atom_site_fract_x
_atom_site_fract_y
_atom_site_fract_z
_atom_site_charge
Eu	Eu	0.38562 0.73879 0.20195 1.76900
O 	O 	0.34251 0.85537 0.13293 -0.32300
C 	C 	0.31658 0.65578 0.18093 0.26600
O 	O 	0.46847 0.76030 0.15282 -0.31300
O 	O 	0.41777 0.82493 0.19701 -0.42900
O 	O 	0.43473 0.62543 0.28147 -0.30100
O 	O 	0.29750 0.70084 0.21615 -0.26900
O 	O 	0.35577 0.64985 0.20728 -0.42800
O 	O 	0.33921 0.79509 0.30271 -0.41000
C 	C 	0.32975 0.84917 0.23544 0.32400
O 	O 	0.41941 0.71353 0.38563 -0.41500
C 	C 	0.44219 0.65944 0.36956 0.27500
C 	C 	0.45462 0.81307 0.15953 0.31400
Eu	Eu	0.88138 0.73807 0.79706 1.78900
O 	O 	0.81706 0.83513 0.77934 -0.30600
C 	C 	0.81303 0.66037 0.81738 0.27300
O 	O 	0.90859 0.85769 0.90005 -0.30900
O 	O 	0.94072 0.76854 0.84890 -0.42400
O 	O 	0.95353 0.65449 0.77701 -0.29500
O 	O 	0.83877 0.62891 0.87297 -0.32100
O 	O 	0.82143 0.71036 0.74712 -0.42300
O 	O 	0.86944 0.82178 0.66901 -0.41200
C 	C 	0.83843 0.85791 0.71078 0.27800
O 	O 	0.90336 0.67660 0.63747 -0.42500
C 	C 	0.93775 0.64420 0.67471 0.31800
C 	C 	0.93933 0.82865 0.89342 0.27400
Eu	Eu	0.10888 0.26109 0.13076 1.78400
O 	O 	0.18081 0.17174 0.15496 -0.31700
C 	C 	0.14136 0.38577 0.12445 0.31800
O 	O 	0.02751 0.22775 0.03245 -0.29000
O 	O 	0.08542 0.17548 0.03964 -0.45100
O 	O 	0.05302 0.37235 0.17049 -0.29000
O 	O 	0.12607 0.37910 0.01961 -0.34100
O 	O 	0.13490 0.34514 0.21959 -0.41700
O 	O 	0.13575 0.19948 0.28983 -0.41900
C 	C 	0.16436 0.15856 0.24725 0.27900
O 	O 	0.05736 0.27631 0.24971 -0.40800
C 	C 	0.04089 0.33625 0.24186 0.28500
C 	C 	0.04590 0.17823 0.02885 0.32200
Eu	Eu	0.61462 0.25601 0.92128 1.80700
O 	O 	0.69130 0.18818 0.94313 -0.30900
C 	C 	0.66005 0.36968 0.95324 0.31800
O 	O 	0.59244 0.12448 0.99716 -0.29700
O 	O 	0.55919 0.20934 0.91538 -0.44100
O 	O 	0.55838 0.36232 0.89418 -0.32300
O 	O 	0.63131 0.38481 1.00682 -0.31700
O 	O 	0.66797 0.30842 0.92044 -0.41700
O 	O 	0.64197 0.18003 0.79990 -0.41000
C 	C 	0.67904 0.16378 0.84713 0.32500
O 	O 	0.59109 0.30985 0.74733 -0.41500
C 	C 	0.56780 0.35985 0.78585 0.32600
C 	C 	0.56160 0.14974 0.96204 0.28300
C 	C 	0.29873 0.60685 0.10880 -0.03400
C 	C 	0.31570 0.58370 0.00067 -0.07400
C 	C 	0.29964 0.53667 -0.07148 0.13000
O 	O 	0.31521 0.51094 0.81903 -0.18700
C 	C 	0.34864 0.53488 0.77665 -0.02800
C 	C 	0.26680 0.51283 -0.03189 -0.11200
C 	C 	0.25013 0.53404 0.07880 0.06500
C 	C 	0.21790 0.50268 0.12424 -0.05100
S 	S 	0.18468 0.47180 0.02217 0.03800
C 	C 	0.16828 0.43365 0.14587 -0.11700
C 	C 	0.18673 0.44658 0.26061 0.11600
C 	C 	0.21528 0.48502 0.24798 0.07100
O 	O 	0.24069 0.49933 0.34908 -0.18300
C 	C 	0.24046 0.45978 0.45635 0.01200
C 	C 	0.19961 0.44638 0.48364 0.01400
O 	O 	0.18053 0.41926 0.37596 -0.18000
C 	C 	0.26597 0.58207 0.14788 -0.04500
H 	H 	0.34111 0.60330 -0.02669 0.03300
H 	H 	0.37262 0.52840 0.84970 0.04400
H 	H 	0.35708 0.50930 0.69086 0.05000
H 	H 	0.34284 0.58424 0.75156 0.04100
H 	H 	0.25505 0.47587 -0.08640 0.06800
H 	H 	0.25421 0.48202 0.53985 0.04300
H 	H 	0.25733 0.41577 0.43809 0.04400
H 	H 	0.18340 0.48991 0.50960 0.04300
H 	H 	0.20049 0.41441 0.56471 0.04000
H 	H 	0.25340 0.59932 0.23293 0.06800
C 	C 	0.83248 0.92393 0.67954 -0.02000
C 	C 	0.86280 0.95620 0.64275 -0.08100
C 	C 	0.85814 0.02071 0.62620 0.15200
O 	O 	0.88741 0.05674 0.59310 -0.20200
C 	C 	0.92435 0.02699 0.57859 -0.02400
C 	C 	0.82266 0.05160 0.64516 -0.12000
C 	C 	0.79199 1.01960 0.67870 0.07500
C 	C 	0.75536 0.05314 0.70379 -0.05700
S 	S 	0.75249 0.11559 0.80286 0.06000
C 	C 	0.70374 0.11820 0.78223 -0.11600
C 	C 	0.69086 0.07343 0.70144 0.11800
C 	C 	0.72027 1.03549 0.65930 0.07300
O 	O 	0.71445 0.98561 0.57814 -0.18600
C 	C 	0.67631 0.96685 0.57337 0.01300
C 	C 	0.64670 1.02280 0.56633 0.01300
O 	O 	0.65250 1.06395 0.67091 -0.17900
C 	C 	0.79707 0.95592 0.69614 -0.05300
H 	H 	0.89002 0.93107 0.63145 0.06800
H 	H 	0.92331 -0.00755 0.50125 0.04100
H 	H 	0.94363 0.06197 0.55286 0.04300
H 	H 	0.93604 0.00529 0.66871 0.04300
H 	H 	0.81904 0.10104 0.63337 0.07700
H 	H 	0.67257 0.93955 0.65899 0.03900
H 	H 	0.67182 0.93696 0.48949 0.03500
H 	H 	0.61760 1.00688 0.56674 0.03800
H 	H 	0.64886 1.04785 0.47663 0.04100
H 	H 	0.77371 0.93158 0.72673 0.06800
C 	C 	0.17370 0.09876 0.31102 -0.02400
C 	C 	0.14616 0.07261 0.37866 -0.08100
C 	C 	0.15371 1.01367 0.43320 0.15100
O 	O 	0.12698 0.98343 0.49802 -0.19700
C 	C 	0.08909 1.01148 0.49971 -0.02600
C 	C 	0.18951 0.98243 0.42186 -0.11900
C 	C 	0.21750 0.00827 0.35624 0.07500
C 	C 	0.25446 0.97308 0.34033 -0.05400
S 	S 	0.25800 0.89561 0.30526 0.05600
C 	C 	0.30561 0.89959 0.28709 -0.11500
C 	C 	0.31797 0.95714 0.31047 0.11900
C 	C 	0.28881 -0.00096 0.33955 0.07400
O 	O 	0.29457 0.06084 0.36714 -0.18300
C 	C 	0.32985 0.07970 0.32665 0.01300
C 	C 	0.36284 0.03076 0.35935 0.01400
O 	O 	0.35547 -0.02735 0.30203 -0.18400
C 	C 	0.20921 0.06618 0.29957 -0.05200
H 	H 	0.11872 0.09780 0.38516 0.06400
H 	H 	0.07611 1.01760 0.40201 0.04100
H 	H 	0.07167 0.98096 0.55072 0.04900
H 	H 	0.08890 1.05616 0.55060 0.04300
H 	H 	0.19538 0.93739 0.46426 0.08000
H 	H 	0.33589 0.12401 0.37279 0.03800
H 	H 	0.32720 0.08693 0.22282 0.04300
H 	H 	0.36640 0.02522 0.46355 0.04600
H 	H 	0.38975 0.04586 0.32605 0.03800
H 	H 	0.23009 0.08550 0.24448 0.07000
C 	C 	0.77304 0.64620 0.82423 -0.02200
C 	C 	0.74373 0.69316 0.80433 -0.08500
C 	C 	0.70534 0.68098 0.81234 0.15400
O 	O 	0.67450 0.72624 0.79834 -0.19700
C 	C 	0.68249 0.78926 0.79145 -0.02500
C 	C 	0.69682 0.62060 0.83444 -0.11900
C 	C 	0.72569 0.57263 0.85207 0.07500
C 	C 	0.71548 0.50888 0.87272 -0.05400
S 	S 	0.67487 0.49351 0.94435 0.06100
C 	C 	0.68555 0.41639 0.92030 -0.11600
C 	C 	0.71895 0.40368 0.86133 0.11800
C 	C 	0.73557 0.45604 0.83177 0.07300
O 	O 	0.76838 0.45449 0.76315 -0.18400
C 	C 	0.77845 0.39608 0.70557 0.01400
C 	C 	0.77256 0.34246 0.79362 0.01200
O 	O 	0.73385 0.34466 0.82806 -0.17600
C 	C 	0.76389 0.58637 0.85062 -0.05400
H 	H 	0.75121 0.73906 0.78465 0.07100
H 	H 	0.69750 0.79779 0.70529 0.04400
H 	H 	0.65519 0.81834 0.78576 0.04500
H 	H 	0.69940 0.80286 0.87760 0.04400
H 	H 	0.66722 0.61136 0.83711 0.08000
H 	H 	0.80873 0.39410 0.68220 0.03900
H 	H 	0.76058 0.39143 0.61646 0.04300
H 	H 	0.79175 0.34507 0.88032 0.04700
H 	H 	0.77979 0.29802 0.74579 0.04100
H 	H 	0.78659 0.55072 0.86975 0.07400
C 	C 	0.47598 0.64482 0.45548 -0.02100
C 	C 	0.49595 0.69270 0.50898 -0.08200
C 	C 	0.52906 0.67977 0.58889 0.15400
O 	O 	0.55144 0.72530 0.64212 -0.19700
C 	C 	0.54512 0.78621 0.59290 -0.02700
C 	C 	0.54080 0.61845 0.61753 -0.11900
C 	C 	0.52125 0.57018 0.56371 0.07600
C 	C 	0.53405 0.50616 0.59729 -0.05700
S 	S 	0.54278 0.48329 0.75146 0.06200
C 	C 	0.55555 0.41045 0.69910 -0.12000
C 	C 	0.55394 0.40516 0.56967 0.12000
C 	C 	0.54037 0.45909 0.51142 0.07300
O 	O 	0.53555 0.46461 0.37965 -0.18000
C 	C 	0.53558 0.40654 0.31464 0.00800
C 	C 	0.56748 0.36060 0.37080 0.01900
O 	O 	0.56353 0.35106 0.50275 -0.18400
C 	C 	0.48906 0.58355 0.48154 -0.05300
H 	H 	0.48582 0.73956 0.48569 0.06700
H 	H 	0.51649 0.80692 0.61446 0.04400
H 	H 	0.56663 0.81495 0.63883 0.04700
H 	H 	0.54854 0.78613 0.48960 0.04700
H 	H 	0.56601 0.60839 0.67976 0.08100
H 	H 	0.53977 0.41385 0.21335 0.03800
H 	H 	0.50762 0.38704 0.32237 0.04100
H 	H 	0.59556 0.37854 0.35761 0.03700
H 	H 	0.56657 0.31587 0.32076 0.01700
H 	H 	0.47344 0.54646 0.44164 0.06700
C 	C 	0.97491 0.85659 0.93348 -0.02200
C 	C 	1.00881 0.81926 0.95795 -0.08400
C 	C 	0.04275 0.84542 0.99891 0.15000
O 	O 	0.07791 0.81120 1.02574 -0.19100
C 	C 	0.07995 0.74623 1.00687 -0.03000
C 	C 	0.04211 0.90918 1.01442 -0.10400
C 	C 	0.00869 0.94754 0.98791 0.07900
C 	C 	0.00974 0.01539 0.00020 -0.06200
S 	S 	0.05113 0.05135 -0.01059 0.04300
C 	C 	0.02671 0.12085 0.01557 -0.12400
C 	C 	-0.01125 0.11604 0.03315 0.12300
C 	C 	0.97885 0.05645 0.02241 0.05400
O 	O 	0.94208 0.04053 1.04377 -0.16400
C 	C 	0.91390 0.09170 0.03724 -0.01900
C 	C 	0.92849 0.14667 0.11204 0.02400
O 	O 	0.96276 0.16525 0.06312 -0.18700
C 	C 	0.97520 0.92060 0.94682 -0.05700
H 	H 	1.00832 0.77008 0.94591 0.07300
H 	H 	0.07251 0.73507 0.90646 0.05000
H 	H 	0.10962 0.72730 1.03058 0.05600
H 	H 	0.06109 0.72450 1.07027 0.04900
H 	H 	0.06822 0.92858 0.04757 0.06500
H 	H 	0.88746 0.07789 0.07620 0.04100
H 	H 	0.90725 0.10510 0.93690 0.06000
H 	H 	0.93438 0.13318 0.21257 0.03600
H 	H 	0.90651 0.18602 0.10737 0.03400
H 	H 	0.94944 0.94896 0.92109 0.07400
C 	C 	0.52612 0.11819 0.96751 -0.02500
C 	C 	0.49111 0.15025 0.93040 -0.08200
C 	C 	0.45669 0.12184 0.93289 0.14800
O 	O 	0.42059 0.15156 0.89831 -0.19400
C 	C 	0.41869 0.21363 0.85526 -0.02800
C 	C 	0.45795 0.06082 0.97222 -0.10500
C 	C 	0.49255 0.02804 1.01086 0.08300
C 	C 	0.49235 0.96374 0.05342 -0.06800
S 	S 	0.45518 0.93887 0.13067 0.06200
C 	C 	0.47550 0.86510 0.12340 -0.12300
C 	C 	0.50959 0.86061 0.06573 0.11900
C 	C 	0.51947 0.91689 0.02755 0.05900
O 	O 	0.55102 0.92329 0.95616 -0.16500
C 	C 	0.57766 0.87002 -0.04237 -0.01800
C 	C 	0.55688 0.81071 -0.05716 0.02100
O 	O 	0.53113 0.80551 0.04079 -0.18500
C 	C 	0.52663 0.05716 1.00900 -0.05400
H 	H 	0.49090 0.19739 0.90015 0.06900
H 	H 	0.43413 0.21654 0.76783 0.04400
H 	H 	0.38847 0.22987 0.83299 0.05100
H 	H 	0.43036 0.24409 0.92999 0.04500
H 	H 	0.43150 0.03873 -0.02898 0.06600
H 	H 	0.59541 0.86860 0.04807 0.04500
H 	H 	0.59671 0.87348 0.87924 0.04900
H 	H 	0.57786 0.76996 -0.05498 0.04000
H 	H 	0.54037 0.81157 -0.14968 0.03800
H 	H 	0.55334 0.03274 1.04132 0.07500
C 	C 	0.00956 0.35605 0.32224 -0.01900
C 	C 	-0.01229 0.31235 0.37258 -0.08100
C 	C 	0.95917 0.33041 0.45570 0.15200
O 	O 	0.93657 0.28901 0.51181 -0.19600
C 	C 	0.94413 0.22479 0.48847 -0.02800
C 	C 	0.95320 0.39266 0.48766 -0.11800
C 	C 	0.97533 0.43677 0.43989 0.07300
C 	C 	0.97202 0.50084 0.48779 -0.05300
S 	S 	0.92995 0.53684 0.53452 0.04600
C 	C 	0.95475 0.59624 0.59393 -0.11700
C 	C 	0.99310 0.58890 0.57568 0.11900
C 	C 	0.00304 0.53453 0.51658 0.07300
O 	O 	0.04103 0.51469 0.49696 -0.18200
C 	C 	0.06871 0.54842 0.56680 0.01200
C 	C 	0.05643 0.61771 0.56832 0.01400
O 	O 	0.01996 0.62930 0.62017 -0.18300
C 	C 	0.00273 0.41817 0.35442 -0.05200
H 	H 	-0.00679 0.26469 0.34622 0.07300
H 	H 	0.97370 0.20911 0.52276 0.04400
H 	H 	0.92430 0.19908 0.54073 0.05300
H 	H 	0.93921 0.21447 0.38643 0.04300
H 	H 	0.93210 0.40602 0.55440 0.07900
H 	H 	0.09647 0.54047 0.52330 0.04100
H 	H 	0.07228 0.53111 0.66532 0.04900
H 	H 	0.05491 0.63577 0.47041 0.04100
H 	H 	0.07785 0.64228 0.62570 0.03900
H 	H 	0.01962 0.45178 0.31554 0.07400
