data_crystal

_cell_length_a 36.99250
_cell_length_b 18.63230
_cell_length_c 12.89820
_cell_angle_alpha 82.27490
_cell_angle_beta  83.45580
_cell_angle_gamma 90.09930

_symmetry_space_group_name_	'P 1'
_symmetry_space_group_name_H-M	'P 1'

loop_
_symmetry_equiv_pos_as_xyz
  x,y,z

loop_
_atom_site_label
_atom_site_type_symbol
_atom_site_fract_x
_atom_site_fract_y
_atom_site_fract_z
_atom_site_charge
Eu	Eu	0.39115 0.71404 0.19474 1.81700
O 	O 	0.36460 0.85980 0.09510 -0.28600
C 	C 	0.32022 0.68871 0.10225 0.34300
O 	O 	0.43923 0.82978 0.04667 -0.30300
O 	O 	0.44279 0.77616 0.21232 -0.44000
O 	O 	0.40607 0.55884 0.28789 -0.30100
O 	O 	0.33630 0.73336 0.03532 -0.30500
O 	O 	0.33868 0.65311 0.18154 -0.42100
O 	O 	0.35728 0.80284 0.26167 -0.41800
C 	C 	0.35033 0.85941 0.18502 0.29600
O 	O 	0.39046 0.65861 0.36324 -0.42100
C 	C 	0.39812 0.58534 0.36853 0.34700
C 	C 	0.44988 0.83365 0.13173 0.29300
Eu	Eu	0.89811 0.79425 0.66031 1.86700
O 	O 	0.82029 0.83545 0.67308 -0.29000
C 	C 	0.85611 0.67795 0.81574 0.26200
O 	O 	0.93123 0.89145 0.79077 -0.32100
O 	O 	0.93191 0.89807 0.61496 -0.43700
O 	O 	0.94768 0.67595 0.70284 -0.32900
O 	O 	0.85133 0.72840 0.86623 -0.27300
O 	O 	0.86354 0.69123 0.70637 -0.42900
O 	O 	0.86228 0.83362 0.53300 -0.42100
C 	C 	0.82971 0.85706 0.58061 0.33500
O 	O 	0.93563 0.73571 0.54822 -0.42700
C 	C 	0.95132 0.67880 0.60742 0.29800
C 	C 	0.93890 0.92692 0.70459 0.34200
Eu	Eu	0.10991 0.21238 0.23061 1.81600
O 	O 	0.17193 0.10126 0.23503 -0.29000
C 	C 	0.17812 0.30418 0.20855 0.28200
O 	O 	0.04052 0.20886 0.13897 -0.32000
O 	O 	0.07779 0.11858 0.18745 -0.43600
O 	O 	0.07351 0.35048 0.31545 -0.27600
O 	O 	0.18551 0.25235 0.16225 -0.31900
O 	O 	0.14396 0.30630 0.26574 -0.42400
O 	O 	0.13288 0.13963 0.36264 -0.41400
C 	C 	0.16453 0.10557 0.32834 0.34500
O 	O 	0.06257 0.22986 0.35429 -0.40800
C 	C 	0.05677 0.30102 0.37225 0.34800
C 	C 	0.04927 0.14629 0.13398 0.29100
Eu	Eu	0.61925 0.28481 0.82985 1.86000
O 	O 	0.66612 0.16700 0.89953 -0.32900
C 	C 	0.65910 0.42430 0.84599 0.28700
O 	O 	0.57298 0.25689 1.03047 -0.31700
O 	O 	0.58136 0.18923 0.89738 -0.42500
O 	O 	0.54276 0.32849 0.82960 -0.30500
O 	O 	0.63608 0.41578 0.92215 -0.33100
O 	O 	0.65789 0.38004 0.76787 -0.44500
O 	O 	0.65536 0.21201 0.73541 -0.42900
C 	C 	0.67351 0.16564 0.80523 0.29200
O 	O 	0.58527 0.31537 0.69438 -0.42600
C 	C 	0.55098 0.33639 0.73438 0.28900
C 	C 	0.56698 0.19953 0.99840 0.33900
N 	N 	0.28166 0.67917 0.10510 -0.09500
N 	N 	0.26394 0.61895 0.12347 -0.08000
C 	C 	0.27882 0.54735 0.13447 0.19200
O 	O 	0.31135 0.53822 0.11331 -0.19500
C 	C 	0.25387 0.48378 0.16262 -0.02000
C 	C 	0.21791 0.49158 0.20785 -0.02600
C 	C 	0.19361 0.43244 0.22699 -0.00300
C 	C 	0.20470 0.36465 0.19983 -0.06100
C 	C 	0.24097 0.35627 0.15784 -0.00100
C 	C 	0.26537 0.41506 0.14013 -0.02300
H 	H 	0.20841 0.54360 0.22730 0.05500
H 	H 	0.16589 0.44019 0.26003 0.05400
H 	H 	0.25034 0.30449 0.13709 0.05800
H 	H 	0.29288 0.40736 0.10532 0.06000
N 	N 	0.80708 0.90432 0.52001 -0.09300
N 	N 	0.78801 0.95587 0.55283 -0.08000
C 	C 	0.78788 -0.01845 0.65363 0.19200
O 	O 	0.81324 -0.03100 0.70599 -0.20300
C 	C 	0.75781 0.02700 0.69215 -0.01900
C 	C 	0.73588 0.06524 0.62172 -0.03000
C 	C 	0.70852 0.11045 0.65840 0.00200
C 	C 	0.70216 0.11721 0.76616 -0.06700
C 	C 	0.72361 0.07790 0.83666 0.00100
C 	C 	0.75122 0.03357 0.79996 -0.02400
H 	H 	0.74056 0.06168 0.53814 0.05400
H 	H 	0.69242 0.14013 0.60229 0.04900
H 	H 	0.71930 0.08167 0.92022 0.05000
H 	H 	0.76734 0.00397 0.85624 0.06100
N 	N 	0.18677 0.07267 0.40524 -0.09400
N 	N 	0.22026 0.05593 0.38936 -0.07900
C 	C 	0.24407 0.07226 0.29296 0.19100
O 	O 	0.24140 0.12913 0.23553 -0.18600
C 	C 	0.27302 0.02092 0.26599 -0.01600
C 	C 	0.28124 -0.03642 0.34164 -0.03200
C 	C 	0.30688 0.91237 0.31516 0.00700
C 	C 	0.32492 0.91709 0.21250 -0.06600
C 	C 	0.31744 0.97555 0.13694 0.00600
C 	C 	0.29171 0.02694 0.16366 -0.02800
H 	H 	0.26754 -0.04257 0.42106 0.05700
H 	H 	0.31219 0.86825 0.37505 0.05300
H 	H 	0.33104 0.98124 0.05708 0.05200
H 	H 	0.28595 0.07056 0.10371 0.06000
N 	N 	0.83652 0.67011 0.72673 0.04300
N 	N 	0.80332 0.64515 0.73477 -0.10500
C 	C 	0.77999 0.62383 0.83127 0.19100
O 	O 	0.78623 0.64533 0.91264 -0.19100
C 	C 	0.74785 0.57626 0.83182 -0.01900
C 	C 	0.74450 0.53701 0.74759 -0.03100
C 	C 	0.71521 0.48879 0.75118 0.00100
C 	C 	0.68862 0.47907 0.83882 -0.07100
C 	C 	0.69136 0.52004 0.92147 0.00000
C 	C 	0.72071 0.56782 0.91824 -0.02600
H 	H 	0.76501 0.54197 0.68010 0.05400
H 	H 	0.71377 0.45810 0.68613 0.04700
H 	H 	0.67118 0.51405 0.98985 0.04900
H 	H 	0.72231 0.59767 0.98403 0.06100
N 	N 	0.39304 0.54094 0.46889 -0.09400
N 	N 	0.41513 0.49469 0.50744 -0.08000
C 	C 	0.45085 0.47734 0.46160 0.18900
O 	O 	0.46034 0.49361 0.36794 -0.19400
C 	C 	0.47611 0.43798 0.52995 -0.01800
C 	C 	0.46526 0.41845 0.63823 -0.02900
C 	C 	0.48939 0.38448 0.70410 0.00200
C 	C 	0.52495 0.36892 0.66332 -0.06500
C 	C 	0.53558 0.38644 0.55484 0.00200
C 	C 	0.51147 0.42096 0.48881 -0.02500
H 	H 	0.43820 0.43001 0.67285 0.05600
H 	H 	0.48026 0.37104 0.78729 0.05300
H 	H 	0.56277 0.37477 0.52113 0.05000
H 	H 	0.52067 0.43513 0.40572 0.06000
N 	N 	0.95227 1.00010 0.69496 -0.09300
N 	N 	0.97218 1.02551 0.75658 -0.07700
C 	C 	0.98956 0.98502 0.83943 0.18700
O 	O 	-0.00244 0.92176 0.83503 -0.18700
C 	C 	0.00214 0.02322 0.92277 -0.00900
C 	C 	0.98969 0.09308 0.93616 -0.03400
C 	C 	0.00399 0.13206 0.00769 0.00700
C 	C 	0.03122 0.10223 0.06720 -0.08000
C 	C 	0.04260 0.03130 1.05714 0.01700
C 	C 	0.02807 -0.00797 0.98608 -0.03400
H 	H 	0.96936 0.11823 0.88976 0.05800
H 	H 	0.99444 0.18641 0.01426 0.04600
H 	H 	0.06339 0.00668 0.10231 0.04300
H 	H 	0.03802 0.93812 0.97822 0.06400
N 	N 	0.54583 0.14332 1.06462 -0.10400
N 	N 	0.53015 0.15509 1.15387 -0.06900
C 	C 	0.50958 0.10108 0.22614 0.18700
O 	O 	0.50194 0.11306 0.31654 -0.19200
C 	C 	0.49769 0.03124 0.19667 -0.01700
C 	C 	0.48688 0.02670 1.09678 -0.02500
C 	C 	0.47257 0.96163 1.07415 0.00900
C 	C 	0.46860 0.90011 0.15104 -0.07300
C 	C 	0.48025 0.90435 0.24990 0.00500
C 	C 	0.49444 -0.03072 0.27261 -0.03000
H 	H 	0.48792 0.07393 1.03761 0.05900
H 	H 	0.46345 0.96034 0.99758 0.05300
H 	H 	0.47755 0.85800 0.31072 0.04900
H 	H 	0.50246 -0.02865 0.35032 0.05900
N 	N 	0.03321 0.31301 0.46435 -0.09400
N 	N 	0.01687 0.37094 0.48423 -0.07900
C 	C 	1.01500 0.43821 0.41613 0.18800
O 	O 	1.02105 0.44090 0.32085 -0.18900
C 	C 	1.00158 0.50299 0.46300 -0.01700
C 	C 	0.99959 0.50322 0.57238 -0.03300
C 	C 	0.98435 0.56141 0.61873 0.00400
C 	C 	0.97049 0.62059 0.55678 -0.06800
C 	C 	0.97355 0.62175 0.44706 0.00300
C 	C 	0.98909 0.56362 0.40046 -0.02700
H 	H 	0.00937 0.45795 0.62277 0.05700
H 	H 	0.98266 0.55908 0.70348 0.05000
H 	H 	0.96321 0.66679 0.39746 0.05100
H 	H 	0.99036 0.56524 0.31590 0.05900
