data_crystal

_cell_length_a 33.18180
_cell_length_b 20.18230
_cell_length_c 10.88110
_cell_angle_alpha 90.77230
_cell_angle_beta  87.24800
_cell_angle_gamma 89.24310

_symmetry_space_group_name_	'P 1'
_symmetry_space_group_name_H-M	'P 1'

loop_
_symmetry_equiv_pos_as_xyz
  x,y,z

loop_
_atom_site_label
_atom_site_type_symbol
_atom_site_fract_x
_atom_site_fract_y
_atom_site_fract_z
_atom_site_charge
Eu	Eu	0.40603 0.71457 0.17662 1.82600
O 	O 	0.34511 0.79486 0.05574 -0.31200
C 	C 	0.33200 0.63214 0.10854 0.33200
O 	O 	0.43275 0.80173 -0.03716 -0.32200
O 	O 	0.45606 0.79038 0.15283 -0.44000
O 	O 	0.46779 0.61921 0.25302 -0.34800
O 	O 	0.34187 0.65675 0.00995 -0.31800
O 	O 	0.35642 0.63886 0.20835 -0.45500
O 	O 	0.36261 0.79514 0.25321 -0.42200
C 	C 	0.33860 0.81665 0.15985 0.34500
O 	O 	0.42833 0.69154 0.36622 -0.43700
C 	C 	0.45833 0.64262 0.35454 0.33000
C 	C 	0.45713 0.81865 0.03706 0.34900
Eu	Eu	0.89195 0.74118 0.78989 1.82000
O 	O 	0.81929 0.83240 0.78539 -0.31100
C 	C 	0.81745 0.66826 0.88040 0.32500
O 	O 	0.89675 0.85518 0.96265 -0.34200
O 	O 	0.93400 0.82930 0.78883 -0.45400
O 	O 	0.93367 0.60467 0.78297 -0.31900
O 	O 	0.81943 0.71632 0.94903 -0.33700
O 	O 	0.84884 0.65456 0.79392 -0.44100
O 	O 	0.85816 0.78446 0.63164 -0.43400
C 	C 	0.82517 0.82275 0.67499 0.32700
O 	O 	0.93380 0.68838 0.64713 -0.44200
C 	C 	0.94435 0.62458 0.68145 0.35100
C 	C 	0.92629 0.86700 0.89573 0.32300
Eu	Eu	0.11623 0.23622 0.13848 1.81900
O 	O 	0.17554 0.12334 0.11885 -0.34800
C 	C 	0.15809 0.36358 0.06541 0.34900
O 	O 	0.03175 0.22613 0.02768 -0.29300
O 	O 	0.07291 0.15139 0.11212 -0.44600
O 	O 	0.06242 0.36067 0.15347 -0.29600
O 	O 	0.13276 0.35548 -0.01074 -0.33600
O 	O 	0.16116 0.31875 0.16024 -0.44800
O 	O 	0.14688 0.17721 0.28470 -0.44100
C 	C 	0.16949 0.12532 0.23041 0.33600
O 	O 	0.07646 0.28291 0.29350 -0.42900
C 	C 	0.06377 0.34612 0.26169 0.32800
C 	C 	0.04348 0.16882 0.03127 0.33100
Eu	Eu	0.62737 0.22200 0.83901 1.84300
O 	O 	0.64172 0.07913 0.85919 -0.32900
C 	C 	0.68205 0.33653 0.91101 0.34700
O 	O 	0.57535 0.16373 1.04491 -0.34000
O 	O 	0.56918 0.16315 0.83916 -0.43900
O 	O 	0.58446 0.34461 0.87074 -0.34100
O 	O 	0.65855 0.33469 1.00039 -0.31200
O 	O 	0.68485 0.28289 0.82929 -0.45100
O 	O 	0.65657 0.14756 0.70186 -0.43800
C 	C 	0.65769 0.08574 0.75698 0.34400
O 	O 	0.60198 0.28955 0.69497 -0.42400
C 	C 	0.58527 0.34426 0.75862 0.34700
C 	C 	0.55561 0.14730 0.95806 0.33800
C 	C 	0.29377 0.59370 0.12330 -0.22700
C 	C 	0.25663 0.63783 0.11470 0.07200
C 	C 	0.25149 0.69126 0.19891 -0.06800
C 	C 	0.21703 0.73166 0.20041 -0.01200
C 	C 	0.18674 0.71873 0.11952 -0.03900
C 	C 	0.19105 0.66615 0.03546 -0.02600
C 	C 	0.22577 0.62526 0.03115 0.00800
C 	C 	0.22765 0.56771 -0.05921 -0.10800
C 	C 	0.21515 0.50537 0.00434 0.07600
C 	C 	0.18374 0.46501 -0.02465 0.01100
N 	N 	0.18353 0.41595 0.05777 -0.13100
N 	N 	0.21311 0.42571 0.13304 -0.03500
N 	N 	0.23292 0.47999 0.10254 -0.08900
H 	H 	0.29236 0.57055 0.21547 0.09500
H 	H 	0.29556 0.55257 0.05514 0.09300
H 	H 	0.27419 0.70129 0.26473 0.05600
H 	H 	0.21360 0.77264 0.26542 0.03800
H 	H 	0.15961 0.74908 0.12238 0.03600
H 	H 	0.16677 0.65653 0.97487 0.02800
H 	H 	0.25826 0.56189 -0.10399 0.06200
H 	H 	0.20722 0.57709 0.86459 0.04500
H 	H 	0.16296 0.47099 -0.09753 0.04500
C 	C 	0.79699 0.85215 0.58562 -0.22200
C 	C 	0.81003 0.91899 0.53535 0.06500
C 	C 	0.85066 0.93886 0.53860 -0.06200
C 	C 	0.86275 1.00007 0.49303 -0.01400
C 	C 	0.83468 1.04308 0.44471 -0.02600
C 	C 	0.79454 1.02438 0.43879 -0.04200
C 	C 	0.78181 0.96217 0.48117 0.01400
C 	C 	0.73837 0.94351 0.46467 -0.12600
C 	C 	0.71195 0.96891 0.57075 0.08200
C 	C 	0.69809 0.03312 0.59040 0.00900
N 	N 	0.67658 0.03280 0.69825 -0.13000
N 	N 	0.67705 -0.02811 0.74178 -0.03200
N 	N 	0.69832 0.93167 0.66550 -0.08700
H 	H 	0.76692 0.85722 0.63431 0.09500
H 	H 	0.79400 0.81678 0.50763 0.08800
H 	H 	0.87353 0.90713 0.57527 0.05600
H 	H 	0.89405 1.01422 0.49567 0.03900
H 	H 	0.84414 0.09076 0.41037 0.04300
H 	H 	0.77324 1.05846 0.40018 0.04500
H 	H 	0.73521 0.88904 0.45467 0.06300
H 	H 	0.72759 0.96467 0.37804 0.06300
H 	H 	0.70358 0.07582 0.53320 0.04300
C 	C 	0.18539 0.07145 0.30898 -0.22700
C 	C 	0.16673 0.00618 0.27524 0.06300
C 	C 	0.12880 -0.00872 0.33082 -0.06800
C 	C 	0.10979 0.93199 0.30373 -0.01400
C 	C 	0.12824 0.88674 0.22056 -0.02900
C 	C 	0.16553 0.90096 0.16292 -0.04700
C 	C 	0.18522 0.96049 0.18848 0.02200
C 	C 	0.22503 0.97301 0.11976 -0.12700
C 	C 	0.25790 0.93100 0.16928 0.08100
C 	C 	0.28272 0.88681 0.10340 0.00700
N 	N 	0.30811 0.86181 0.18421 -0.12800
N 	N 	0.29920 0.88899 0.29371 -0.03200
N 	N 	0.26865 -0.06835 0.28732 -0.08700
H 	H 	0.17746 0.08373 0.40722 0.08800
H 	H 	0.21881 0.06959 0.30178 0.08800
H 	H 	0.11381 0.02592 0.39541 0.05000
H 	H 	0.08063 0.92116 0.34719 0.03400
H 	H 	0.11349 0.84066 0.20038 0.03500
H 	H 	0.17908 0.86575 0.09685 0.04300
H 	H 	0.23399 0.02553 0.12341 0.07000
H 	H 	0.22198 0.96131 0.02056 0.06100
H 	H 	0.28260 0.87470 0.00617 0.04700
C 	C 	0.78090 0.62538 0.88708 -0.22400
C 	C 	0.76073 0.62555 0.76516 0.06900
C 	C 	0.74497 0.68634 0.72528 -0.07000
C 	C 	0.72718 0.69089 0.61216 -0.01500
C 	C 	0.72424 0.63468 0.53767 -0.02900
C 	C 	0.73919 0.57374 0.57580 -0.04300
C 	C 	0.75759 0.56798 0.68919 0.01900
C 	C 	0.77404 0.50068 0.72337 -0.12600
C 	C 	0.74493 0.46524 0.80860 0.08100
C 	C 	0.72979 0.40264 0.79143 0.00900
N 	N 	0.70492 0.39149 0.89000 -0.12900
N 	N 	0.70474 0.44432 0.96345 -0.03000
N 	N 	0.72905 0.49005 0.91631 -0.08700
H 	H 	0.75898 0.64437 0.96017 0.09400
H 	H 	0.79043 0.57553 0.91578 0.09200
H 	H 	0.74710 0.73079 0.78145 0.05800
H 	H 	0.71571 0.73818 0.58219 0.03300
H 	H 	0.71059 0.63842 0.44960 0.04000
H 	H 	0.73645 0.53082 0.51613 0.04800
H 	H 	0.80374 0.50526 0.76485 0.06800
H 	H 	0.78000 0.46964 0.63911 0.06100
H 	H 	0.73599 0.36898 0.71443 0.04300
C 	C 	0.47863 0.61804 0.46607 -0.22100
C 	C 	0.52326 0.63417 0.47132 0.06300
C 	C 	0.54232 0.67659 0.38477 -0.05900
C 	C 	0.58306 0.69173 0.39093 -0.01500
C 	C 	0.60567 0.66540 0.48346 -0.02600
C 	C 	0.58767 0.62351 0.57019 -0.04100
C 	C 	0.54659 0.60746 0.56586 0.01600
C 	C 	0.52884 0.56298 0.66500 -0.12300
C 	C 	0.54595 0.49397 0.65330 0.07900
C 	C 	0.55705 0.45503 0.74893 0.00800
N 	N 	0.57062 0.39748 0.69766 -0.12800
N 	N 	0.56790 0.40088 0.57687 -0.02800
N 	N 	0.55264 0.45929 0.54701 -0.08000
H 	H 	0.47505 0.56339 0.46738 0.08900
H 	H 	0.46251 0.63948 0.54949 0.08600
H 	H 	0.52595 0.69895 0.31218 0.05600
H 	H 	0.59708 0.72437 0.32384 0.04100
H 	H 	0.63717 0.67781 0.48830 0.03800
H 	H 	0.60581 0.60374 0.64176 0.04800
H 	H 	0.49561 0.55974 0.66486 0.05400
H 	H 	0.53553 0.58431 0.75650 0.05300
H 	H 	0.55542 0.46738 0.84635 0.04300
C 	C 	0.95480 0.92038 0.93069 -0.22600
C 	C 	-0.00321 0.89159 0.94294 0.06200
C 	C 	0.00193 0.84168 1.03036 -0.07400
C 	C 	0.03937 0.81069 1.04173 -0.02200
C 	C 	0.07251 0.82989 0.96793 -0.03300
C 	C 	0.06845 0.88065 0.88355 -0.04700
C 	C 	0.03090 0.91238 0.86991 0.01000
C 	C 	0.02872 0.96777 0.77803 -0.12500
C 	C 	0.02157 0.03358 0.84138 0.07800
C 	C 	0.04363 0.06042 0.93347 -0.00500
N 	N 	0.02890 0.12211 -0.04643 -0.12500
N 	N 	-0.00060 0.13265 -0.12201 -0.02400
N 	N 	0.99419 0.07921 0.80860 -0.09100
H 	H 	0.94444 0.94371 1.02009 0.09200
H 	H 	0.95364 0.95935 0.86056 0.09400
H 	H 	0.97654 0.82579 1.08846 0.03900
H 	H 	0.04268 0.77158 1.10778 0.02400
H 	H 	0.10150 0.80554 0.97637 0.02900
H 	H 	0.09491 0.89546 0.82914 0.03800
H 	H 	1.00488 0.95771 0.71222 0.06500
H 	H 	0.05750 -0.02909 0.72187 0.05500
H 	H 	0.06896 0.03812 0.97752 0.03600
C 	C 	0.51689 0.11049 0.98065 -0.22800
C 	C 	0.49673 0.09427 0.86214 0.07100
C 	C 	0.46674 0.13798 0.82273 -0.06700
C 	C 	0.44758 0.12582 0.71342 -0.01200
C 	C 	0.45817 0.07009 0.64148 -0.02800
C 	C 	0.48812 1.02648 0.67813 -0.04200
C 	C 	0.50764 0.03754 0.78839 0.01700
C 	C 	0.53931 0.98790 0.82452 -0.12900
C 	C 	0.52203 0.94042 0.91683 0.07700
C 	C 	0.49005 0.89857 0.90181 -0.00000
N 	N 	0.48540 0.86530 0.00772 -0.12400
N 	N 	0.51316 0.88540 0.08289 -0.03000
N 	N 	0.53606 0.93120 0.02970 -0.07800
H 	H 	0.49635 0.14165 1.04175 0.08600
H 	H 	0.52288 0.06475 1.03227 0.09600
H 	H 	0.45840 0.18213 0.87618 0.04900
H 	H 	0.42448 0.15975 0.68429 0.03500
H 	H 	0.44331 0.06083 0.55661 0.04300
H 	H 	0.49588 0.98355 0.62059 0.04600
H 	H 	0.56550 1.01378 0.86142 0.08100
H 	H 	0.55109 0.95883 0.74281 0.06700
H 	H 	0.47188 0.89322 0.82229 0.04500
C 	C 	0.05278 0.39662 0.36031 -0.22400
C 	C 	0.07979 0.45657 0.34846 0.06700
C 	C 	0.12144 0.44695 0.36223 -0.06200
C 	C 	0.14813 0.49957 0.35039 -0.01000
C 	C 	0.13376 0.56280 0.32505 -0.02800
C 	C 	0.09258 0.57382 0.31271 -0.04400
C 	C 	0.06504 0.52151 0.32470 0.01900
C 	C 	1.02069 0.53738 0.31409 -0.12600
C 	C 	0.99991 0.54442 0.43925 0.08000
C 	C 	0.97989 0.59998 0.48649 0.00800
N 	N 	0.96638 0.58436 0.60075 -0.13000
N 	N 	0.97744 0.52256 0.62252 -0.03000
N 	N 	0.99800 0.49688 0.52534 -0.08600
H 	H 	0.05640 0.37447 0.45211 0.09700
H 	H 	0.02039 0.40868 0.35455 0.09800
H 	H 	0.13333 0.39818 0.38173 0.05500
H 	H 	0.18003 0.49132 0.36134 0.04300
H 	H 	0.15454 0.60354 0.31607 0.04000
H 	H 	0.08207 0.62372 0.29534 0.04000
H 	H 	1.00582 0.49950 0.25776 0.06900
H 	H 	1.01691 0.58469 0.26432 0.05600
H 	H 	0.97554 0.64699 0.44201 0.03900
