data_crystal

_cell_length_a 35.57850
_cell_length_b 20.80340
_cell_length_c 11.93580
_cell_angle_alpha 85.60190
_cell_angle_beta  95.65710
_cell_angle_gamma 89.11080

_symmetry_space_group_name_	'P 1'
_symmetry_space_group_name_H-M	'P 1'

loop_
_symmetry_equiv_pos_as_xyz
  x,y,z

loop_
_atom_site_label
_atom_site_type_symbol
_atom_site_fract_x
_atom_site_fract_y
_atom_site_fract_z
_atom_site_charge
Eu	Eu	0.38580 0.73289 0.16869 1.81300
O 	O 	0.35844 0.86660 0.11035 -0.34000
C 	C 	0.36288 0.61889 0.03731 0.28500
O 	O 	0.45100 0.79550 0.06596 -0.32900
O 	O 	0.42831 0.80518 0.23293 -0.43700
O 	O 	0.45425 0.65147 0.30917 -0.28900
O 	O 	0.39533 0.63051 0.01853 -0.34300
O 	O 	0.34418 0.66014 0.10065 -0.45200
O 	O 	0.33919 0.79148 0.23567 -0.43400
C 	C 	0.34000 0.85494 0.18972 0.30400
O 	O 	0.39319 0.67026 0.33433 -0.42600
C 	C 	0.42469 0.62970 0.33795 0.27400
C 	C 	0.44717 0.82954 0.14302 0.29800
Eu	Eu	0.88329 0.73366 0.81703 1.78500
O 	O 	0.83412 0.85383 0.81469 -0.29600
C 	C 	0.80201 0.71246 0.87628 0.28600
O 	O 	0.92021 0.83697 0.95098 -0.32200
O 	O 	0.94482 0.76233 0.85046 -0.43700
O 	O 	0.94219 0.63149 0.80839 -0.33600
O 	O 	0.81529 0.74566 0.94971 -0.31800
O 	O 	0.82232 0.70183 0.78543 -0.43900
O 	O 	0.87336 0.82219 0.69132 -0.41900
C 	C 	0.84954 0.86745 0.72954 0.29100
O 	O 	0.89872 0.67538 0.67341 -0.43300
C 	C 	0.93118 0.63848 0.70824 0.30600
C 	C 	0.94847 0.81246 0.92107 0.28600
Eu	Eu	0.11298 0.27321 0.26897 1.79600
O 	O 	0.16575 0.16559 0.23428 -0.33200
C 	C 	0.15519 0.37476 0.13544 0.29800
O 	O 	0.06069 0.21523 0.10277 -0.34300
O 	O 	0.07504 0.18671 0.28650 -0.43600
O 	O 	0.02669 0.30244 0.39516 -0.25300
O 	O 	0.13068 0.35751 0.06640 -0.34400
O 	O 	0.15282 0.35713 0.24930 -0.44600
O 	O 	0.15885 0.21931 0.38793 -0.43000
C 	C 	0.17707 0.17372 0.33180 0.28900
O 	O 	0.08975 0.31652 0.41824 -0.41800
C 	C 	0.05279 0.33955 0.39172 0.26100
C 	C 	0.06111 0.17251 0.17877 0.29800
Eu	Eu	0.62517 0.23301 0.88124 1.77200
O 	O 	0.65577 0.21144 0.64372 -0.26600
C 	C 	0.69349 0.31789 0.89099 0.29000
O 	O 	0.56370 0.27149 1.00749 -0.35100
O 	O 	0.58050 0.17313 0.96055 -0.45200
O 	O 	0.59941 0.36159 0.76207 -0.31200
O 	O 	0.70176 0.28145 0.97485 -0.34700
O 	O 	0.66884 0.29678 0.80489 -0.42000
O 	O 	0.64647 0.14621 0.79764 -0.43500
C 	C 	0.66660 0.16450 0.70670 0.29700
O 	O 	0.58156 0.26014 0.73196 -0.41900
C 	C 	0.57666 0.32660 0.71548 0.30700
C 	C 	0.55611 0.21462 1.00612 0.28600
C 	C 	0.34425 0.56130 -0.00509 -0.07000
C 	C 	0.36227 0.52199 -0.07554 -0.00800
C 	C 	0.34486 0.46679 -0.11315 -0.03200
C 	C 	0.30959 0.44973 -0.08002 -0.03700
C 	C 	0.29152 0.48766 -0.00832 0.00200
C 	C 	0.25584 0.46568 0.03379 0.00200
C 	C 	0.22221 0.47341 -0.03791 -0.09000
C 	C 	0.18846 0.44633 -0.00654 0.09600
C 	C 	0.15310 0.45722 -0.08662 -0.19200
C 	C 	0.18851 0.41019 0.09940 -0.10800
C 	C 	0.22203 0.40521 0.17266 -0.01900
C 	C 	0.25557 0.43239 0.14111 0.02800
C 	C 	0.29098 0.42404 0.22126 -0.17500
C 	C 	0.30861 0.54387 0.02765 -0.02100
H 	H 	0.38989 0.53370 -0.10128 0.04400
H 	H 	0.35898 0.43666 0.83312 0.03100
H 	H 	0.29665 0.40622 0.89175 0.03400
H 	H 	0.22263 0.49991 -0.11960 0.05300
H 	H 	0.14429 0.41113 0.87892 0.08000
H 	H 	0.13019 0.47714 -0.04174 0.07600
H 	H 	0.15753 0.49207 0.84088 0.06300
H 	H 	0.22241 0.37800 0.25390 0.04200
H 	H 	0.28603 0.39550 0.30079 0.06100
H 	H 	0.30103 0.47214 0.24322 0.06500
H 	H 	0.31320 0.39861 0.18126 0.06500
H 	H 	0.29445 0.57314 0.08268 0.04500
C 	C 	0.84310 0.93170 0.66832 -0.06600
C 	C 	0.87003 0.95800 0.60071 -0.00500
C 	C 	0.86454 1.02021 0.54761 -0.03500
C 	C 	0.83216 0.05669 0.56131 -0.04000
C 	C 	0.80422 0.03016 0.62513 0.00400
C 	C 	0.76944 0.06735 0.64214 0.00200
C 	C 	0.76007 0.07014 0.75320 -0.08800
C 	C 	0.72611 0.09877 0.77673 0.09200
C 	C 	0.71739 0.09706 0.89793 -0.18700
C 	C 	0.70128 0.12823 0.68676 -0.10300
C 	C 	0.71069 0.12591 0.57551 -0.01600
C 	C 	0.74414 0.09520 0.55166 0.02800
C 	C 	0.75133 0.09170 0.42977 -0.17400
C 	C 	0.81017 0.96780 0.67887 -0.01800
H 	H 	0.89566 0.93105 0.59110 0.04100
H 	H 	0.88571 0.04047 0.49681 0.03700
H 	H 	0.82932 0.10573 0.52375 0.03800
H 	H 	0.77940 0.04874 0.82241 0.05400
H 	H 	0.71172 0.14660 0.92153 0.04900
H 	H 	0.69247 0.06664 0.90919 0.06800
H 	H 	0.74118 0.07582 0.95712 0.06200
H 	H 	0.69139 0.14746 0.50637 0.04300
H 	H 	0.72544 0.10437 0.37186 0.05900
H 	H 	0.76038 1.04219 0.41402 0.06800
H 	H 	0.77328 0.12640 0.40767 0.06300
H 	H 	0.78888 0.94722 0.72895 0.04800
C 	C 	0.21006 0.13624 0.38952 -0.07200
C 	C 	0.22458 0.14959 0.49901 -0.00700
C 	C 	0.25652 0.11611 0.55270 -0.03800
C 	C 	0.27418 0.06872 0.49840 -0.04100
C 	C 	0.25957 0.05362 0.39058 0.00100
C 	C 	0.27832 0.00271 0.33520 0.00200
C 	C 	0.30971 0.01923 0.27811 -0.09300
C 	C 	0.33001 0.97279 0.22772 0.09800
C 	C 	0.36369 0.99434 0.16826 -0.20300
C 	C 	0.31897 0.90734 0.23695 -0.10800
C 	C 	0.28752 0.89109 0.29516 -0.01800
C 	C 	0.26685 0.93798 0.34349 0.02700
C 	C 	0.23320 0.91676 0.40332 -0.17500
C 	C 	0.22768 0.08759 0.33588 -0.02100
H 	H 	0.21149 0.18623 0.54301 0.04200
H 	H 	0.26768 0.12701 0.63660 0.03400
H 	H 	0.29915 0.04354 0.54042 0.03700
H 	H 	0.31854 0.06893 0.27395 0.05200
H 	H 	0.36943 1.04621 0.17649 0.06700
H 	H 	0.38926 0.96627 0.20537 0.08200
H 	H 	0.35843 -0.01244 0.07674 0.08400
H 	H 	0.27875 0.84141 0.30276 0.04400
H 	H 	0.24221 0.87875 0.47154 0.06300
H 	H 	0.21183 0.89664 0.34216 0.06300
H 	H 	0.21944 0.95658 0.44201 0.06700
H 	H 	0.21681 0.07608 0.25190 0.04600
C 	C 	0.76495 0.68333 0.88483 -0.07200
C 	C 	0.73458 0.71978 0.91548 -0.00100
C 	C 	0.69964 0.69144 0.92619 -0.04000
C 	C 	0.69495 0.62632 0.90865 -0.04200
C 	C 	0.72517 0.58916 0.87909 0.00300
C 	C 	0.72097 0.51896 0.87241 -0.00100
C 	C 	0.73922 0.47726 0.95924 -0.09200
C 	C 	0.73236 0.41084 0.96621 0.09600
C 	C 	0.75237 0.36925 1.06379 -0.21000
C 	C 	0.70653 0.38556 0.88319 -0.10700
C 	C 	0.69040 0.42731 0.79206 -0.02100
C 	C 	0.69735 0.49356 0.78573 0.03100
C 	C 	0.68018 0.53601 0.68519 -0.17600
C 	C 	0.76004 0.61794 0.86620 -0.01900
H 	H 	0.73782 0.77029 0.92998 0.04100
H 	H 	0.67627 0.71974 -0.05044 0.04100
H 	H 	0.66803 0.60449 -0.07951 0.04200
H 	H 	0.75797 0.49726 1.02419 0.04900
H 	H 	0.73159 0.34940 0.11994 0.08100
H 	H 	0.76831 0.32938 1.03177 0.08100
H 	H 	0.77288 0.39701 0.11598 0.07000
H 	H 	0.67141 0.40861 0.72638 0.05800
H 	H 	0.66389 0.50767 0.62255 0.06700
H 	H 	0.70309 0.56042 0.64282 0.06800
H 	H 	0.66079 0.57287 0.71199 0.06800
H 	H 	0.78358 0.58899 0.84524 0.03200
C 	C 	0.42181 0.56033 0.37086 -0.06900
C 	C 	0.38691 0.53037 0.35172 -0.00600
C 	C 	0.38407 0.46418 0.37712 -0.03800
C 	C 	0.41576 0.42721 0.42222 -0.03900
C 	C 	0.45080 0.45627 0.44473 0.00300
C 	C 	0.48328 0.41777 0.50523 0.00300
C 	C 	0.47690 0.37783 0.60189 -0.09000
C 	C 	0.50683 0.34575 0.67008 0.09900
C 	C 	0.49885 0.30514 0.77475 -0.20500
C 	C 	0.54411 0.35511 0.64265 -0.10700
C 	C 	0.55059 0.39322 0.54521 -0.01300
C 	C 	0.52060 0.42269 0.47375 0.02900
C 	C 	0.52982 0.45603 0.36378 -0.17800
C 	C 	0.45357 0.52315 0.41853 -0.01900
H 	H 	0.36201 0.55798 0.31531 0.03200
H 	H 	0.35720 0.44127 0.36270 0.03200
H 	H 	0.41276 0.37593 0.44126 0.03600
H 	H 	0.44848 0.37336 0.62657 0.05000
H 	H 	0.51040 0.25541 0.77272 0.07900
H 	H 	0.51213 0.32698 0.85039 0.07800
H 	H 	0.46809 0.30169 0.78249 0.06800
H 	H 	0.57931 0.39887 0.52344 0.04100
H 	H 	0.54892 0.42431 0.32292 0.06600
H 	H 	0.54448 0.50159 0.38016 0.06800
H 	H 	0.50440 0.46623 0.30321 0.07100
H 	H 	0.48017 0.54659 0.43776 0.04600
C 	C 	0.98641 0.83582 0.95837 -0.07300
C 	C 	1.01898 0.80012 0.94164 -0.00600
C 	C 	0.05484 0.82275 0.97473 -0.04500
C 	C 	0.05862 0.88167 0.02281 -0.02700
C 	C 	0.02647 0.91841 1.03865 -0.00900
C 	C 	0.03098 0.98343 0.07985 0.01400
C 	C 	0.05046 -0.01052 0.18632 -0.09400
C 	C 	0.05938 0.05027 0.22431 0.09900
C 	C 	0.08154 0.05261 0.33828 -0.20100
C 	C 	0.04860 0.10673 0.15295 -0.10000
C 	C 	0.02785 0.10009 1.04794 -0.02200
C 	C 	0.01920 0.03942 1.01019 0.02300
C 	C 	-0.00032 0.03547 0.89290 -0.17200
C 	C 	0.99042 0.89458 1.00893 -0.01800
H 	H 	1.01680 0.75462 0.90331 0.03600
H 	H 	0.07981 0.79504 0.96153 0.03400
H 	H 	0.08662 0.89948 0.04514 0.03600
H 	H 	0.05959 0.94610 0.23882 0.05300
H 	H 	0.10872 0.07696 0.32910 0.08000
H 	H 	0.06475 0.07847 0.39509 0.08600
H 	H 	0.08836 0.00357 0.37961 0.06700
H 	H 	0.01926 0.14274 0.99290 0.04700
H 	H 	-0.00414 0.08370 0.84600 0.06600
H 	H 	0.97129 0.01479 0.89748 0.06600
H 	H 	0.01680 1.00479 0.84404 0.06800
H 	H 	0.96562 0.92259 1.02277 0.04500
C 	C 	0.52140 0.19033 1.05134 -0.07100
C 	C 	0.49491 0.23288 1.08824 -0.01400
C 	C 	0.46236 0.20914 0.13183 -0.03100
C 	C 	0.45585 0.14297 0.13876 -0.04300
C 	C 	0.48176 0.10014 0.10076 0.00700
C 	C 	0.47522 0.03011 0.10957 0.00300
C 	C 	0.47632 0.99783 0.21727 -0.09300
C 	C 	0.46839 0.93201 0.23134 0.09700
C 	C 	0.46985 0.90014 0.34931 -0.20300
C 	C 	0.45926 0.89752 0.13488 -0.10200
C 	C 	0.45969 0.92968 1.02689 -0.02200
C 	C 	0.46748 0.99554 1.01301 0.02400
C 	C 	0.46640 1.02826 0.89543 -0.17200
C 	C 	0.51450 0.12398 1.05777 -0.02600
H 	H 	0.49936 0.28440 1.08353 0.03800
H 	H 	0.44216 0.24210 0.16042 0.03300
H 	H 	0.43057 0.12513 0.17312 0.03600
H 	H 	0.48322 0.02454 0.29080 0.05200
H 	H 	0.44085 0.88827 0.36936 0.08400
H 	H 	0.48783 0.85560 0.35670 0.08400
H 	H 	0.48191 0.93220 0.41322 0.06800
H 	H 	0.45276 0.90362 0.95265 0.04100
H 	H 	0.45738 0.99497 0.82992 0.06100
H 	H 	0.49495 1.04518 0.87951 0.06600
H 	H 	0.44623 0.07007 0.88559 0.06200
H 	H 	0.53473 0.09050 1.03067 0.04500
C 	C 	0.04539 0.40891 0.36383 -0.08400
C 	C 	0.06624 0.44270 0.28571 0.00300
C 	C 	0.06070 0.50917 0.26218 -0.04400
C 	C 	0.03491 0.54263 0.31830 -0.03600
C 	C 	0.01411 0.50951 0.39726 -0.00300
C 	C 	-0.00851 0.54608 0.46875 0.00700
C 	C 	0.01118 0.58059 0.55116 -0.09100
C 	C 	0.99217 0.61216 0.62915 0.09600
C 	C 	0.01470 0.64996 0.71431 -0.19900
C 	C 	0.95240 0.60873 0.62470 -0.10900
C 	C 	0.93250 0.57681 0.53863 -0.01500
C 	C 	0.95161 0.54534 0.46015 0.02200
C 	C 	0.92851 0.51248 0.36924 -0.17200
C 	C 	0.01898 0.44242 0.41881 -0.01100
H 	H 	0.08659 0.41752 0.24245 -0.00700
H 	H 	0.07700 0.53501 0.20218 0.03700
H 	H 	0.03175 0.59450 0.30241 0.03700
H 	H 	0.04175 0.58175 0.55577 0.05200
H 	H 	0.00309 0.70004 0.71031 0.08000
H 	H 	1.01363 0.62655 0.80058 0.08000
H 	H 	0.04485 0.65281 0.69804 0.06600
H 	H 	0.90195 0.57514 0.53402 0.03900
H 	H 	0.90877 0.54817 0.31918 0.05900
H 	H 	0.91176 0.47385 0.40846 0.06300
H 	H 	0.94607 0.49065 0.30974 0.06500
H 	H 	0.00388 0.41710 0.48274 0.04400
