data_crystal

_cell_length_a 38.50280
_cell_length_b 20.99300
_cell_length_c 12.36330
_cell_angle_alpha 89.75730
_cell_angle_beta  87.57140
_cell_angle_gamma 89.09800

_symmetry_space_group_name_	'P 1'
_symmetry_space_group_name_H-M	'P 1'

loop_
_symmetry_equiv_pos_as_xyz
  x,y,z

loop_
_atom_site_label
_atom_site_type_symbol
_atom_site_fract_x
_atom_site_fract_y
_atom_site_fract_z
_atom_site_charge
Eu	Eu	0.38766 0.74268 0.26348 1.78600
O 	O 	0.34871 0.86592 0.23897 -0.29400
C 	C 	0.33777 0.64249 0.16997 0.30000
O 	O 	0.42955 0.81920 0.09055 -0.31000
O 	O 	0.42095 0.83123 0.27132 -0.40700
O 	O 	0.46458 0.71696 0.30646 -0.30400
O 	O 	0.34565 0.67226 0.08808 -0.33400
O 	O 	0.35423 0.65395 0.26565 -0.45200
O 	O 	0.34576 0.79153 0.37123 -0.41400
C 	C 	0.33346 0.84620 0.32051 0.26000
O 	O 	0.41524 0.70061 0.40747 -0.42400
C 	C 	0.44952 0.68562 0.37646 0.28200
C 	C 	0.43378 0.85146 0.17044 0.27900
Eu	Eu	0.88616 0.75306 0.77837 1.78600
O 	O 	0.80658 0.76744 0.72134 -0.29400
C 	C 	0.83120 0.65663 0.83863 0.30800
O 	O 	0.94956 0.78816 0.90396 -0.33100
O 	O 	0.91397 0.84643 0.80006 -0.45600
O 	O 	0.93177 0.63610 0.76772 -0.29700
O 	O 	0.82877 0.69894 0.90586 -0.35400
O 	O 	0.85700 0.66033 0.75697 -0.43000
O 	O 	0.85669 0.80433 0.64626 -0.42900
C 	C 	0.82172 0.81135 0.67711 0.28000
O 	O 	0.92831 0.72060 0.65517 -0.41600
C 	C 	0.94040 0.65991 0.68093 0.26900
C 	C 	0.94184 0.84008 0.86686 0.30100
Eu	Eu	0.10881 0.24222 0.23343 1.83300
O 	O 	0.15602 0.14082 0.16172 -0.34000
C 	C 	0.17093 0.33272 0.21432 0.26500
O 	O 	0.07015 0.24496 0.03090 -0.31500
O 	O 	0.06678 0.17793 0.17344 -0.42200
O 	O 	0.04105 0.31552 0.23835 -0.30800
O 	O 	0.16475 0.32266 0.12018 -0.31500
O 	O 	0.15122 0.30411 0.29697 -0.43800
O 	O 	0.13113 0.15904 0.32720 -0.43500
C 	C 	0.15496 0.12770 0.25790 0.29500
O 	O 	0.07333 0.27800 0.37325 -0.42900
C 	C 	0.04953 0.32103 0.33156 0.28100
C 	C 	0.05821 0.19620 0.06983 0.27300
Eu	Eu	0.61990 0.25328 0.77209 1.84100
O 	O 	0.68711 0.18484 0.79868 -0.32800
C 	C 	0.65559 0.36239 0.87252 0.26700
O 	O 	0.55234 0.23853 0.89270 -0.32500
O 	O 	0.58247 0.17057 0.78230 -0.44900
O 	O 	0.57747 0.37250 0.75703 -0.30100
O 	O 	0.63415 0.34252 0.93906 -0.32600
O 	O 	0.65743 0.33595 0.76960 -0.41700
O 	O 	0.65486 0.19732 0.65237 -0.41900
C 	C 	0.68176 0.16847 0.70658 0.26700
O 	O 	0.59076 0.29668 0.63298 -0.41600
C 	C 	0.57440 0.35328 0.66527 0.26900
C 	C 	0.55749 0.18368 0.86370 0.28500
C 	C 	0.30949 0.59573 0.17159 -0.10100
C 	C 	0.31348 0.53662 0.11562 0.03000
C 	C 	0.34449 0.52232 0.03771 0.02600
C 	C 	0.33307 0.52403 -0.07940 -0.17400
C 	C 	0.36254 0.45830 0.06188 -0.17600
C 	C 	0.28800 0.48970 0.13302 -0.06300
C 	C 	0.25996 0.49969 0.20649 0.00700
C 	C 	0.23692 0.44730 0.23963 0.09000
N 	N 	0.23067 0.43105 0.34418 -0.09100
N 	N 	0.20694 0.38613 0.34627 -0.07400
C 	C 	0.19873 0.37556 0.24300 0.03300
N 	N 	0.21735 0.41292 0.17421 -0.09700
N 	N 	0.21296 0.42101 0.06266 -0.14400
C 	C 	0.25555 0.55834 0.25787 -0.06100
C 	C 	0.27929 0.60759 0.23915 0.03000
C 	C 	0.27165 0.67228 0.29210 0.03700
C 	C 	0.27328 0.66760 0.41559 -0.18000
C 	C 	0.23652 0.69992 0.25862 -0.18100
H 	H 	0.36470 0.55890 0.04431 0.02200
H 	H 	0.31313 0.48750 -0.09244 0.06300
H 	H 	0.35574 0.51462 -0.13596 0.06200
H 	H 	0.32206 0.57174 -0.09875 0.07100
H 	H 	0.36790 0.45426 0.14901 0.06000
H 	H 	0.34657 0.41732 0.03894 0.06200
H 	H 	0.38771 0.45489 0.01464 0.05900
H 	H 	0.29096 0.44374 0.09413 0.04200
H 	H 	0.20614 0.46872 0.04937 0.08100
H 	H 	0.23693 0.41201 0.02248 0.08100
H 	H 	0.23333 0.56542 0.31345 0.04600
H 	H 	0.29119 0.70777 0.26472 0.01700
H 	H 	0.29922 0.64899 0.43756 0.07500
H 	H 	0.25304 0.63553 0.45064 0.06600
H 	H 	0.26936 0.71549 0.45230 0.07700
H 	H 	0.23556 0.70079 0.16895 0.06700
H 	H 	0.21450 0.67147 0.29222 0.06400
H 	H 	0.23313 0.74964 0.28806 0.07000
C 	C 	0.80311 0.87262 0.66328 -0.09900
C 	C 	0.79806 0.89846 0.55849 0.03500
C 	C 	0.81314 0.86667 0.45547 0.02100
C 	C 	0.83907 0.91031 0.39538 -0.17000
C 	C 	0.78439 0.84642 0.38111 -0.17200
C 	C 	0.77760 0.95428 0.54904 -0.06400
C 	C 	0.76111 0.98303 0.63971 0.01500
C 	C 	0.73661 0.03731 0.62549 0.09400
N 	N 	0.71801 1.04564 0.53620 -0.08700
N 	N 	0.69660 0.09493 0.55440 -0.07000
C 	C 	0.70241 0.11663 0.65441 0.03400
N 	N 	0.72746 0.08166 0.70035 -0.09700
N 	N 	0.74306 0.09245 0.79940 -0.15500
C 	C 	0.76627 0.95710 0.74225 -0.05900
C 	C 	0.78812 0.90384 0.75634 0.02400
C 	C 	0.79497 0.88127 0.87173 0.04000
C 	C 	0.76235 0.85201 0.92583 -0.18000
C 	C 	0.80885 0.93505 0.94099 -0.18200
H 	H 	0.82769 0.82234 0.47432 0.03500
H 	H 	0.82585 0.95303 0.36207 0.05900
H 	H 	0.85227 0.88385 0.32750 0.05500
H 	H 	0.85919 0.92599 0.45089 0.06500
H 	H 	0.76591 0.81467 0.42574 0.06300
H 	H 	0.76987 0.88827 0.35001 0.06200
H 	H 	0.79594 0.81967 0.31066 0.05600
H 	H 	0.77363 0.97453 0.46979 0.04900
H 	H 	0.72373 0.08959 0.86111 0.08700
H 	H 	0.75266 0.13873 0.79739 0.09300
H 	H 	0.75239 0.97686 0.81213 0.05100
H 	H 	0.81562 0.84382 0.87140 -0.00700
H 	H 	0.75318 0.81238 0.87559 0.07600
H 	H 	0.74108 0.88806 0.93672 0.06400
H 	H 	0.76846 0.83226 1.00652 0.06200
H 	H 	0.83180 0.95692 0.89876 0.06000
H 	H 	0.78875 0.97261 0.95805 0.06500
H 	H 	0.81722 0.91547 1.01959 0.05300
C 	C 	0.18016 0.08145 0.30023 -0.09300
C 	C 	0.16983 0.01835 0.32644 0.02900
C 	C 	0.13175 -0.00175 0.32600 0.02600
C 	C 	0.11881 -0.02393 0.43890 -0.17700
C 	C 	0.12590 0.94749 0.23996 -0.17300
C 	C 	0.19556 0.97306 0.35261 -0.05300
C 	C 	0.23056 -0.01032 0.35651 0.00100
C 	C 	0.25728 0.94028 0.37824 0.09700
N 	N 	0.25111 0.88955 0.44342 -0.09100
N 	N 	0.27870 0.85121 0.43412 -0.07600
C 	C 	0.30152 0.87835 0.36257 0.04400
N 	N 	0.28887 0.93452 0.32738 -0.09700
N 	N 	0.30404 0.97319 0.24515 -0.14100
C 	C 	0.23994 0.05292 0.33878 -0.05900
C 	C 	0.21547 0.09915 0.30798 0.02800
C 	C 	0.22783 0.16644 0.28005 0.03400
C 	C 	0.25141 0.16589 0.17699 -0.17800
C 	C 	0.24620 0.19708 0.37396 -0.18000
H 	H 	0.11463 0.03906 0.30546 0.03100
H 	H 	0.13256 0.93202 0.46456 0.06500
H 	H 	0.09049 -0.03342 0.43971 0.06000
H 	H 	0.12301 0.01412 0.49893 0.07000
H 	H 	0.13526 0.96506 0.15918 0.06800
H 	H 	0.13962 0.90205 0.25822 0.06200
H 	H 	0.09764 0.93795 0.23584 0.06100
H 	H 	0.18844 0.92400 0.36720 0.04600
H 	H 	0.28439 -0.01142 0.19493 0.08200
H 	H 	0.31423 1.01307 0.28221 0.08500
H 	H 	0.26663 0.06610 0.34732 0.04200
H 	H 	0.20555 0.19869 0.26366 0.02100
H 	H 	0.23722 0.14621 0.10852 0.07300
H 	H 	0.27526 0.13652 0.18844 0.06300
H 	H 	0.25920 0.21525 0.15544 0.06700
H 	H 	0.22991 0.19330 0.44995 0.07200
H 	H 	0.27195 0.17417 0.38600 0.06500
H 	H 	0.25035 0.24846 0.35632 0.07200
C 	C 	0.80681 0.60276 0.84649 -0.09800
C 	C 	0.80264 0.56939 0.94669 0.03300
C 	C 	0.82774 0.57664 1.03838 0.03100
C 	C 	0.84340 0.51203 0.07145 -0.17900
C 	C 	0.80976 0.61026 0.13591 -0.17600
C 	C 	0.77433 0.52864 0.96286 -0.06100
C 	C 	0.75154 0.51698 0.88081 0.01000
C 	C 	0.72017 0.47924 0.90615 0.09300
N 	N 	0.70258 0.48265 1.00273 -0.08700
N 	N 	0.67688 0.44160 1.00075 -0.06800
C 	C 	0.67899 0.41324 0.90305 0.04600
N 	N 	0.70564 0.43616 0.84153 -0.09600
N 	N 	0.71852 0.41179 0.74167 -0.14300
C 	C 	0.75723 0.54577 0.77983 -0.06500
C 	C 	0.78444 0.58899 0.76056 0.03800
C 	C 	0.78748 0.62119 0.64925 0.02300
C 	C 	0.75432 0.65932 0.62440 -0.17000
C 	C 	0.79624 0.57224 0.55997 -0.17100
H 	H 	0.85029 0.60595 1.01216 0.01900
H 	H 	0.82347 0.48074 0.11023 0.06400
H 	H 	0.86409 0.51925 0.12993 0.06300
H 	H 	0.85527 0.48740 0.99927 0.06700
H 	H 	0.79891 0.65710 0.11063 0.07000
H 	H 	0.78828 0.58122 0.17162 0.06400
H 	H 	0.82876 0.61872 0.19923 0.05900
H 	H 	0.76974 0.50595 1.04085 0.04900
H 	H 	0.71440 0.44629 0.68241 0.08400
H 	H 	0.74527 0.40363 0.74651 0.08300
H 	H 	0.73905 0.53786 0.71750 0.04400
H 	H 	0.80880 0.65567 0.64495 0.04500
H 	H 	0.74708 0.69207 0.69233 0.07600
H 	H 	0.73215 0.62745 0.61102 0.06200
H 	H 	0.75885 0.68849 0.55000 0.06400
H 	H 	0.82079 0.54643 0.57749 0.06800
H 	H 	0.77517 0.53707 0.55349 0.06100
H 	H 	0.79997 0.59667 0.48046 0.06000
C 	C 	0.46644 0.62796 0.41957 -0.09200
C 	C 	0.45724 0.56724 0.38005 0.02000
C 	C 	0.42869 0.55904 0.29906 0.04800
C 	C 	0.39837 0.52062 0.34853 -0.18300
C 	C 	0.44305 0.52840 0.19373 -0.18800
C 	C 	0.47552 0.51295 0.41434 -0.05600
C 	C 	0.50246 0.51737 0.48588 0.01100
C 	C 	0.52288 0.45940 0.51115 0.10000
N 	N 	0.52880 0.41163 0.43981 -0.08800
N 	N 	0.54816 0.36790 0.48756 -0.06800
C 	C 	0.55376 0.38919 0.58782 0.03700
N 	N 	0.53820 0.44653 0.60490 -0.09600
N 	N 	0.53572 0.48225 0.70085 -0.15500
C 	C 	0.51098 0.57699 0.52624 -0.05900
C 	C 	0.49313 0.63276 0.49506 0.03200
C 	C 	0.50294 0.69645 0.54386 0.02700
C 	C 	0.54018 0.71463 0.50845 -0.17500
C 	C 	0.49795 0.69524 0.66777 -0.17600
H 	H 	0.41758 0.60568 0.27518 -0.01600
H 	H 	0.40612 0.47002 0.36119 0.06400
H 	H 	0.37628 0.52231 0.29365 0.06900
H 	H 	0.38921 0.54144 0.42734 0.07200
H 	H 	0.46583 0.55524 0.16105 0.06500
H 	H 	0.45096 0.47796 0.20677 0.06700
H 	H 	0.42282 0.52971 0.13244 0.05800
H 	H 	0.46905 0.46659 0.38372 0.04800
H 	H 	0.56095 0.49297 0.72208 0.09500
H 	H 	0.52453 0.45347 0.76169 0.09600
H 	H 	0.53228 0.58049 0.57997 0.05100
H 	H 	0.48576 0.73549 0.51562 0.03500
H 	H 	0.54308 0.71496 0.41863 0.07400
H 	H 	0.55959 0.68067 0.54092 0.06500
H 	H 	0.54590 0.76322 0.53760 0.06600
H 	H 	0.47091 0.68133 0.69092 0.06900
H 	H 	0.51624 0.66104 0.70517 0.06600
H 	H 	0.50232 0.74330 0.70143 0.06600
C 	C 	0.96180 0.89716 0.89153 -0.09900
C 	C 	0.98159 0.92794 0.80739 0.03200
C 	C 	0.98703 0.89902 0.69445 0.02800
C 	C 	0.02548 0.88273 0.66961 -0.17500
C 	C 	0.97265 0.94331 0.60754 -0.17400
C 	C 	0.99669 0.98694 0.82858 -0.05500
C 	C 	0.99281 0.01540 0.93025 0.00100
C 	C 	1.00721 0.07928 0.94688 0.09400
N 	N 	1.00649 0.12593 0.87159 -0.09000
N 	N 	0.02392 0.17454 0.90904 -0.07000
C 	C 	0.03526 0.15701 0.00660 0.04200
N 	N 	0.02490 0.09777 0.03298 -0.09700
N 	N 	0.03682 0.05991 0.11832 -0.14500
C 	C 	0.97387 0.98447 0.01306 -0.05900
C 	C 	0.95824 0.92544 -0.00422 0.02900
C 	C 	0.93635 0.89580 0.08831 0.02700
C 	C 	0.90466 0.93814 0.11822 -0.17600
C 	C 	0.95812 0.88306 0.18743 -0.17500
H 	H 	0.97306 0.85348 0.68829 0.03100
H 	H 	0.04166 0.92609 0.66864 0.06300
H 	H 	1.02872 0.85932 0.58922 0.06300
H 	H 	0.03495 0.84915 0.73195 0.06800
H 	H 	0.94498 0.95543 0.62829 0.06900
H 	H 	0.98771 0.98793 0.60045 0.06300
H 	H 	0.97417 0.91935 0.52745 0.06100
H 	H 	0.01152 0.01140 0.76515 0.04500
H 	H 	0.01561 1.05035 0.17094 0.08200
H 	H 	0.04617 0.01673 0.08579 0.07900
H 	H 	0.96977 1.00795 0.09016 0.04200
H 	H 	0.92601 0.84908 0.06506 0.01600
H 	H 	0.88955 0.94823 0.04538 0.05700
H 	H 	0.91258 0.98391 0.15356 0.06200
H 	H 	0.88753 0.91338 0.17850 0.05300
H 	H 	0.98159 0.85405 0.16394 0.06700
H 	H 	0.96643 0.92826 0.22398 0.05900
H 	H 	0.94258 0.85630 0.24973 0.06100
C 	C 	0.53927 0.13145 0.92113 -0.09300
C 	C 	0.54809 0.11571 0.02868 0.02100
C 	C 	0.57844 0.14664 0.08360 0.04200
C 	C 	0.60565 0.09674 0.11630 -0.18500
C 	C 	0.56547 0.18638 0.18135 -0.18600
C 	C 	0.52838 0.07007 0.08653 -0.05500
C 	C 	0.50106 0.03874 0.03967 0.00300
C 	C 	0.48003 0.99332 0.10584 0.09800
N 	N 	0.47276 1.00165 0.21259 -0.08700
N 	N 	0.45507 0.95145 0.24771 -0.06600
C 	C 	0.45185 0.91261 0.16237 0.04600
N 	N 	0.46691 0.93782 0.07200 -0.09600
N 	N 	0.47352 0.90647 0.97283 -0.14400
C 	C 	0.49303 0.05339 0.93313 -0.06000
C 	C 	0.51196 0.09893 0.87200 0.03100
C 	C 	0.50191 0.11270 0.75582 0.02700
C 	C 	0.46474 0.13987 0.75284 -0.17600
C 	C 	0.50613 0.05274 0.68564 -0.17500
H 	H 	0.59252 0.17973 0.02774 -0.00600
H 	H 	0.59515 0.06461 0.18085 0.06800
H 	H 	0.62875 0.12080 0.14695 0.06300
H 	H 	0.61428 0.06768 0.04495 0.06200
H 	H 	0.54603 0.22248 0.15582 0.07800
H 	H 	0.55333 0.15589 0.24558 0.07100
H 	H 	0.58751 0.21181 0.21588 0.07200
H 	H 	0.53443 0.05853 0.16915 0.04700
H 	H 	0.45755 0.92732 0.91600 0.08500
H 	H 	0.49945 0.91396 0.94805 0.08300
H 	H 	0.47109 0.03091 0.89852 0.04300
H 	H 	0.51905 0.14900 0.71717 0.03300
H 	H 	0.46209 0.18302 0.80444 0.07000
H 	H 	0.44538 0.10438 0.78199 0.06500
H 	H 	0.45880 0.15365 0.66865 0.06600
H 	H 	0.53293 0.03284 0.69036 0.06900
H 	H 	0.48736 0.01565 0.71240 0.06400
H 	H 	0.50161 0.06466 0.59969 0.06700
C 	C 	0.03715 0.37700 0.39461 -0.09000
C 	C 	0.05463 0.43579 0.37997 0.02100
C 	C 	0.08914 0.44118 0.31498 0.04600
C 	C 	0.11777 0.46509 0.38660 -0.18600
C 	C 	0.08539 0.48411 0.21523 -0.18700
C 	C 	0.03951 0.49130 0.42557 -0.05600
C 	C 	0.00803 0.48986 0.48556 0.00800
C 	C 	0.99106 0.55089 0.51828 0.09300
N 	N 	0.99233 0.60343 0.45507 -0.08900
N 	N 	0.97435 0.64912 0.50699 -0.07200
C 	C 	0.96252 0.62427 0.60188 0.04300
N 	N 	0.97231 0.56269 0.61102 -0.09600
N 	N 	0.96836 0.52416 0.70389 -0.14300
C 	C 	0.99174 0.43152 0.50406 -0.06200
C 	C 	0.00591 0.37451 0.46003 0.03300
C 	C 	0.98687 0.31215 0.48227 0.02600
C 	C 	0.95099 0.31286 0.43273 -0.17500
C 	C 	0.98358 0.29801 0.60413 -0.17600
H 	H 	0.09826 0.39405 0.28426 -0.00700
H 	H 	0.11205 0.51425 0.41568 0.06700
H 	H 	0.14312 0.46522 0.34047 0.07500
H 	H 	0.12023 0.43313 0.45780 0.07600
H 	H 	0.06418 0.46665 0.16546 0.07100
H 	H 	0.07947 0.53424 0.23869 0.06800
H 	H 	0.10992 0.48319 0.16457 0.06500
H 	H 	0.05204 0.53667 0.41250 0.04700
H 	H 	0.94938 0.49060 0.68977 0.08300
H 	H 	0.99196 0.50037 0.71573 0.08500
H 	H 	0.96700 0.43055 0.54839 0.04300
H 	H 	0.00162 0.27133 0.44539 0.03300
H 	H 	0.95360 0.32363 0.34476 0.07100
H 	H 	0.93333 0.34887 0.47240 0.06300
H 	H 	0.93892 0.26533 0.44287 0.06300
H 	H 	1.00963 0.29813 0.63936 0.07500
H 	H 	0.96660 0.33381 0.64714 0.06500
H 	H 	0.97217 0.25026 0.61820 0.06800
