data_crystal

_cell_length_a 38.73530
_cell_length_b 24.95850
_cell_length_c 17.35020
_cell_angle_alpha 86.56210
_cell_angle_beta  91.85340
_cell_angle_gamma 88.21660

_symmetry_space_group_name_	'P 1'
_symmetry_space_group_name_H-M	'P 1'

loop_
_symmetry_equiv_pos_as_xyz
  x,y,z

loop_
_atom_site_label
_atom_site_type_symbol
_atom_site_fract_x
_atom_site_fract_y
_atom_site_fract_z
_atom_site_charge
Eu	Eu	0.41176 0.72763 0.20945 1.91700
O 	O 	0.34895 0.78983 0.13190 -0.23800
C 	C 	0.34021 0.67861 0.21703 0.32600
O 	O 	0.41602 0.80953 0.06816 -0.23500
O 	O 	0.45537 0.77599 0.15831 -0.39100
O 	O 	0.48296 0.68593 0.27267 -0.26000
O 	O 	0.34370 0.67306 0.14823 -0.23500
O 	O 	0.36925 0.67989 0.26599 -0.40300
O 	O 	0.38255 0.80488 0.23624 -0.36800
C 	C 	0.35253 0.81395 0.19051 0.38300
O 	O 	0.43893 0.72997 0.32729 -0.38500
C 	C 	0.47315 0.71137 0.32628 0.36300
C 	C 	0.44420 0.81374 0.09998 0.39700
Eu	Eu	0.91391 0.75259 0.78734 1.88400
O 	O 	0.85315 0.75162 0.65171 -0.22000
C 	C 	0.84955 0.69762 0.84875 0.34200
O 	O 	0.97356 0.88790 0.84063 -0.13500
O 	O 	0.95914 0.80842 0.79556 -0.37800
O 	O 	0.94035 0.64071 0.77209 -0.24900
O 	O 	0.85572 0.73043 0.89635 -0.29000
O 	O 	0.86925 0.69552 0.78327 -0.40500
O 	O 	0.88741 0.81437 0.70035 -0.40700
C 	C 	0.85659 0.79838 0.66631 0.33900
O 	O 	0.93830 0.71228 0.68703 -0.36100
C 	C 	0.94548 0.65816 0.70644 0.39600
C 	C 	0.95110 0.85532 0.83222 0.30300
Eu	Eu	0.10510 0.24071 0.22824 1.94800
O 	O 	0.16244 0.15861 0.24239 -0.24600
C 	C 	0.16315 0.32139 0.20057 0.39500
O 	O 	0.07110 0.20076 0.08776 -0.26900
O 	O 	0.07466 0.16558 0.21001 -0.38800
O 	O 	0.05368 0.33379 0.20752 -0.26700
O 	O 	0.17263 0.28339 0.16474 -0.24900
O 	O 	0.13482 0.31644 0.24737 -0.39800
O 	O 	0.13213 0.19788 0.33388 -0.39700
C 	C 	0.15587 0.15968 0.31059 0.33800
O 	O 	0.06393 0.27173 0.30653 -0.39500
C 	C 	0.05033 0.32101 0.27586 0.34300
C 	C 	0.06295 0.16479 0.13351 0.39200
Eu	Eu	0.59535 0.25310 0.77760 1.93800
O 	O 	0.66561 0.21315 0.80188 -0.25100
C 	C 	0.64011 0.34547 0.82622 0.40000
O 	O 	0.53948 0.11122 0.83425 -0.12900
O 	O 	0.55153 0.19440 0.78752 -0.37400
O 	O 	0.53355 0.32338 0.76553 -0.24500
O 	O 	0.62417 0.33359 0.88386 -0.25000
O 	O 	0.63770 0.31366 0.76353 -0.37200
O 	O 	0.62686 0.19453 0.70944 -0.36200
C 	C 	0.65840 0.18475 0.74940 0.38100
O 	O 	0.56813 0.29692 0.67284 -0.35300
C 	C 	0.54469 0.33336 0.70157 0.38100
C 	C 	0.56010 0.14724 0.83208 0.30300
C 	C 	0.30527 0.68784 0.25014 -0.18500
C 	C 	0.27449 0.68225 0.19301 0.03800
C 	C 	0.26220 0.62533 0.19301 -0.08500
C 	C 	0.26437 0.59559 0.12680 0.26600
F 	F 	0.27935 0.61644 0.06250 -0.34300
C 	C 	0.25004 0.54473 0.12553 0.26300
F 	F 	0.25088 0.51806 0.05966 -0.31900
C 	C 	0.23349 0.52279 0.19056 -0.01700
C 	C 	0.21554 0.47126 0.18816 0.00900
C 	C 	0.23354 0.42327 0.17387 0.23800
F 	F 	0.26781 0.42346 0.15976 -0.31300
C 	C 	0.21654 0.37443 0.17668 0.32000
F 	F 	0.23485 0.32856 0.16477 -0.34100
C 	C 	0.18131 0.37281 0.19448 -0.19500
C 	C 	0.16327 0.42117 0.20702 0.31900
F 	F 	0.12906 0.42167 0.22184 -0.37500
C 	C 	0.18014 0.46983 0.20319 0.23500
F 	F 	0.16178 0.51591 0.21382 -0.31800
C 	C 	0.23226 0.55189 0.25733 0.26400
F 	F 	0.21700 0.53127 0.32144 -0.31700
C 	C 	0.24604 0.60285 0.25823 0.26100
F 	F 	0.24249 0.63115 0.32211 -0.34700
H 	H 	0.30319 0.66047 0.30248 0.15900
H 	H 	0.30446 0.72942 0.26981 0.12400
H 	H 	0.25262 0.70829 0.21040 0.11600
H 	H 	0.28082 0.69813 0.13415 0.13000
C 	C 	0.82733 0.83863 0.64806 -0.21100
C 	C 	0.83737 0.89558 0.66689 0.05800
C 	C 	0.80614 0.93281 0.66981 -0.10100
C 	C 	0.79926 0.97409 0.61201 0.27300
F 	F 	0.81873 0.97811 0.54835 -0.34500
C 	C 	0.77280 0.01251 0.62056 0.26100
F 	F 	0.76787 0.05390 0.56647 -0.31700
C 	C 	0.75279 0.00985 0.68669 -0.01200
C 	C 	0.72834 0.05427 0.70142 0.00700
C 	C 	0.69810 0.06437 0.65546 0.24400
F 	F 	0.69054 1.03260 0.59678 -0.31200
C 	C 	0.67519 0.10676 0.67064 0.31600
F 	F 	0.64598 0.11499 0.62559 -0.34000
C 	C 	0.68246 0.13995 0.73175 -0.18200
C 	C 	0.71299 0.12924 0.77759 0.31700
F 	F 	0.72113 0.15936 0.83780 -0.33300
C 	C 	0.73562 0.08699 0.76229 0.24400
F 	F 	0.76503 0.07830 0.80669 -0.30900
C 	C 	0.75868 0.96734 0.74277 0.26400
F 	F 	0.73947 0.96398 0.80691 -0.31400
C 	C 	0.78519 0.92918 0.73455 0.26700
F 	F 	0.79135 0.88982 0.79128 -0.36700
H 	H 	0.81964 0.83852 0.58580 0.14800
H 	H 	0.80497 0.82583 0.68240 0.14300
H 	H 	0.85125 0.89506 0.72410 0.07500
H 	H 	0.85570 0.91090 0.62339 0.10200
C 	C 	0.17311 0.11998 0.36905 -0.19300
C 	C 	0.16140 0.06232 0.35820 0.04700
C 	C 	0.19054 0.02670 0.33246 -0.09400
C 	C 	0.19814 0.02582 0.25383 0.26900
F 	F 	0.17923 0.05656 0.19972 -0.35200
C 	C 	0.22513 -0.00728 0.23026 0.26000
F 	F 	0.23243 -0.00651 0.15421 -0.31800
C 	C 	0.24461 0.95937 0.28477 -0.01300
C 	C 	0.27234 0.92274 0.25973 0.00600
C 	C 	0.30636 0.92593 0.28926 0.24100
F 	F 	0.31446 -0.03635 0.33948 -0.31200
C 	C 	0.33240 0.89069 0.26668 0.31800
F 	F 	0.36498 0.89532 0.29624 -0.34200
C 	C 	0.32497 0.85176 0.21354 -0.19300
C 	C 	0.29074 0.84854 0.18435 0.30900
F 	F 	0.28212 0.81049 0.13509 -0.36700
C 	C 	0.26471 0.88360 0.20744 0.23700
F 	F 	0.23177 0.87832 0.18042 -0.31800
C 	C 	0.23709 0.96042 0.36334 0.26200
F 	F 	0.25507 0.92789 0.41701 -0.31500
C 	C 	0.21045 0.99404 0.38704 0.26900
F 	F 	0.20408 0.99459 0.46347 -0.34000
H 	H 	0.20161 0.12296 0.36557 0.14500
H 	H 	0.16627 0.13143 0.42770 0.14300
H 	H 	0.15176 0.04542 0.41391 0.10600
H 	H 	0.13892 0.06162 0.31669 0.09600
C 	C 	0.82145 0.65837 0.86107 -0.20700
C 	C 	0.79382 0.66539 0.79570 0.04900
C 	C 	0.77003 0.61868 0.79889 -0.09400
C 	C 	0.77907 0.57135 0.76318 0.26600
F 	F 	0.80885 0.56768 0.72432 -0.34600
C 	C 	0.75769 0.52727 0.76800 0.26300
F 	F 	0.76740 0.48164 0.73441 -0.31200
C 	C 	0.72681 0.52993 0.80823 -0.01300
C 	C 	0.70416 0.48327 0.81324 0.00900
C 	C 	0.69595 0.45938 0.88550 0.24300
F 	F 	0.70912 0.47831 0.95169 -0.30600
C 	C 	0.67480 0.41496 0.89006 0.32500
F 	F 	0.66791 0.39229 0.96077 -0.33000
C 	C 	0.66188 0.39318 0.82228 -0.18500
C 	C 	0.67009 0.41740 0.74997 0.32100
F 	F 	0.65761 0.39842 0.68319 -0.34300
C 	C 	0.69087 0.46217 0.74563 0.24400
F 	F 	0.69758 0.48553 0.67522 -0.30700
C 	C 	0.71769 0.57731 0.84362 0.26500
F 	F 	0.68768 0.58118 0.88154 -0.30900
C 	C 	0.73914 0.62135 0.83904 0.26800
F 	F 	0.72989 0.66645 0.87437 -0.34000
H 	H 	0.83341 0.61720 0.86288 0.15200
H 	H 	0.80924 0.66379 0.91738 0.15500
H 	H 	0.77902 0.70386 0.80063 0.09700
H 	H 	0.80604 0.66822 0.73852 0.09900
C 	C 	0.49801 0.72472 0.38979 -0.20500
C 	C 	0.48605 0.70416 0.46928 0.04800
C 	C 	0.49646 0.64589 0.48780 -0.09400
C 	C 	0.47287 0.60504 0.47674 0.26600
F 	F 	0.44123 0.61688 0.44296 -0.36700
C 	C 	0.48138 0.55194 0.50289 0.25900
F 	F 	0.45767 0.51350 0.49532 -0.32400
C 	C 	0.51349 0.53918 0.54047 -0.01100
C 	C 	0.52040 0.48573 0.57989 0.00800
C 	C 	0.52929 0.44098 0.53848 0.24600
F 	F 	0.53106 0.44594 0.46040 -0.31600
C 	C 	0.53698 0.39103 0.57776 0.32200
F 	F 	0.54556 0.34836 0.53646 -0.33300
C 	C 	0.53538 0.38521 0.65879 -0.17900
C 	C 	0.52598 0.43030 0.69968 0.31500
F 	F 	0.52477 0.42681 0.77793 -0.34300
C 	C 	0.51880 0.48004 0.66049 0.24300
F 	F 	0.51042 0.52304 0.70141 -0.31800
C 	C 	0.53762 0.57944 0.54830 0.26400
F 	F 	0.56878 0.56774 0.58452 -0.31800
C 	C 	0.52927 0.63233 0.52173 0.26700
F 	F 	0.55272 0.67082 0.53195 -0.34400
H 	H 	0.52447 0.70871 0.37946 0.16000
H 	H 	0.49919 0.76919 0.38875 0.15200
H 	H 	0.49777 0.72878 0.51397 0.10700
H 	H 	0.45766 0.71065 0.47360 0.10400
C 	C 	0.91515 0.86720 0.85905 -0.18500
C 	C 	0.91369 0.86902 0.94733 0.05900
C 	C 	0.93512 0.91297 0.97897 -0.05600
C 	C 	0.96557 0.90023 0.02372 0.23000
F 	F 	0.97638 0.84829 0.03892 -0.35600
C 	C 	0.98566 0.94105 0.05143 0.28100
F 	F 	0.01535 0.92768 0.09283 -0.32200
C 	C 	0.97576 -0.00475 0.03464 -0.05900
C 	C 	-0.00203 0.03855 0.06023 0.02500
C 	C 	0.01234 0.07425 0.00547 0.21400
F 	F 	0.00632 0.06894 0.92879 -0.29400
C 	C 	0.03353 0.11504 0.02894 0.30300
F 	F 	0.04734 0.14801 0.97384 -0.31500
C 	C 	0.04072 0.12113 0.10819 -0.18600
C 	C 	0.02618 0.08513 0.16294 0.31900
F 	F 	0.03188 0.08973 0.23986 -0.35300
C 	C 	1.00506 0.04427 0.13914 0.23000
F 	F 	0.99097 0.01083 0.19326 -0.31500
C 	C 	0.94496 0.00799 0.99148 0.30400
F 	F 	0.93434 0.06003 0.97638 -0.31400
C 	C 	0.92478 0.96723 0.96402 0.25300
F 	F 	0.89510 -0.01923 0.92275 -0.34600
H 	H 	0.90517 0.90584 0.83033 0.14100
H 	H 	0.89759 0.83576 0.84103 -0.02200
H 	H 	0.88635 0.87586 0.96304 0.09300
H 	H 	0.92193 0.82893 -0.02582 0.04100
C 	C 	0.59458 0.13943 0.87477 -0.16600
C 	C 	0.59146 0.13016 0.96272 0.01800
C 	C 	0.57037 0.08191 0.98476 -0.03900
C 	C 	0.53760 0.08865 0.01639 0.22500
F 	F 	0.52461 0.13840 0.02899 -0.35000
C 	C 	0.51758 0.04412 0.03366 0.28600
F 	F 	0.48604 0.05143 0.06411 -0.32800
C 	C 	0.52991 0.99236 0.01935 -0.05900
C 	C 	0.50876 0.94563 0.03837 0.02700
C 	C 	0.48430 0.92867 -0.01552 0.21600
F 	F 	0.48075 0.95401 0.91305 -0.29400
C 	C 	0.46324 0.88565 0.00397 0.30600
F 	F 	0.43997 0.86989 0.95041 -0.31400
C 	C 	0.46656 0.85883 0.07786 -0.18800
C 	C 	0.49137 0.87598 0.13140 0.32300
F 	F 	0.49477 0.85227 0.20389 -0.36100
C 	C 	0.51225 0.91903 0.11177 0.23100
F 	F 	0.53557 0.93538 0.16477 -0.32100
C 	C 	0.56270 0.98531 0.98872 0.31300
F 	F 	0.57506 0.93540 0.97502 -0.31900
C 	C 	0.58289 0.02975 0.97186 0.24300
F 	F 	0.61462 1.02193 0.94262 -0.33900
H 	H 	0.60902 0.10521 0.85136 0.13900
H 	H 	0.60988 0.17569 0.86434 -0.02600
H 	H 	0.61782 0.12400 0.98986 0.10700
H 	H 	0.58033 0.16733 0.98569 0.09400
C 	C 	0.03242 0.35872 0.32692 -0.20100
C 	C 	0.05220 0.41084 0.33107 0.04200
C 	C 	0.03546 0.44810 0.38537 -0.08800
C 	C 	0.00786 0.48314 0.35906 0.26600
F 	F 	-0.00410 0.48369 0.28459 -0.34900
C 	C 	-0.00769 0.51774 0.40933 0.26400
F 	F 	0.96522 0.55030 0.38281 -0.32000
C 	C 	0.00421 0.51796 0.48675 -0.01300
C 	C 	0.98766 0.55390 0.54086 0.00600
C 	C 	0.97392 0.53228 0.60948 0.24200
F 	F 	0.97389 0.47826 0.62469 -0.31100
C 	C 	0.96005 0.56597 0.66292 0.32000
F 	F 	0.94711 0.54321 0.72847 -0.33400
C 	C 	0.95930 0.62224 0.64865 -0.18400
C 	C 	0.97220 0.64374 0.57863 0.31800
F 	F 	0.97203 0.69761 0.56211 -0.34400
C 	C 	0.98635 0.60987 0.52553 0.24000
F 	F 	-0.00009 0.63193 0.46023 -0.30900
C 	C 	0.03196 0.48315 0.51284 0.26400
F 	F 	0.04446 0.48334 0.58683 -0.31300
C 	C 	0.04739 0.44846 0.46271 0.26800
F 	F 	0.07392 0.41501 0.48989 -0.34400
H 	H 	0.00560 0.36762 0.30391 0.15200
H 	H 	0.03112 0.33901 0.38593 0.14900
H 	H 	0.07947 0.40108 0.35041 0.11400
H 	H 	0.05315 0.43133 0.27247 0.12000
