data_crystal

_cell_length_a 41.21340
_cell_length_b 20.13200
_cell_length_c 9.99580
_cell_angle_alpha 85.52300
_cell_angle_beta  86.01060
_cell_angle_gamma 92.73470

_symmetry_space_group_name_	'P 1'
_symmetry_space_group_name_H-M	'P 1'

loop_
_symmetry_equiv_pos_as_xyz
  x,y,z

loop_
_atom_site_label
_atom_site_type_symbol
_atom_site_fract_x
_atom_site_fract_y
_atom_site_fract_z
_atom_site_charge
Eu	Eu	0.38993 0.76012 0.28913 1.86000
O 	O 	0.35058 0.88462 0.26713 -0.25700
C 	C 	0.36803 0.62687 0.19047 0.31600
O 	O 	0.46013 0.79435 0.18593 -0.24100
O 	O 	0.42242 0.85441 0.28924 -0.35300
O 	O 	0.42892 0.63584 0.33769 -0.29800
O 	O 	0.38595 0.65314 0.09687 -0.32800
O 	O 	0.35833 0.66409 0.29636 -0.44000
O 	O 	0.35298 0.80289 0.43429 -0.34900
C 	C 	0.34392 0.86547 0.38519 0.25100
O 	O 	0.41576 0.71854 0.46914 -0.39800
C 	C 	0.43158 0.66071 0.44411 0.32500
C 	C 	0.45452 0.83956 0.25737 0.21300
Eu	Eu	0.87668 0.74430 0.81505 1.86200
O 	O 	0.84885 0.87571 0.85768 -0.31600
C 	C 	0.80559 0.70040 0.78551 0.31000
O 	O 	0.89970 0.78735 1.08508 -0.28600
O 	O 	0.91646 0.81796 0.86790 -0.42600
O 	O 	0.90503 0.61211 0.78273 -0.22200
O 	O 	0.80356 0.74786 0.85394 -0.30500
O 	O 	0.83572 0.67346 0.75999 -0.42400
O 	O 	0.86050 0.82553 0.66676 -0.42300
C 	C 	0.84863 0.87793 0.73543 0.32500
O 	O 	0.91014 0.70797 0.64790 -0.35600
C 	C 	0.91440 0.64002 0.67311 0.26000
C 	C 	0.91125 0.83130 1.00196 0.30700
Eu	Eu	0.12051 0.21371 0.21275 1.87000
O 	O 	0.14757 0.08253 0.14323 -0.31700
C 	C 	0.18033 0.30751 0.19100 0.23600
O 	O 	0.06445 0.26544 0.07663 -0.23100
O 	O 	0.07827 0.15949 0.12445 -0.40500
O 	O 	0.10266 0.35052 0.29793 -0.25500
O 	O 	0.18752 0.28139 0.08752 -0.21900
O 	O 	0.16257 0.27025 0.29686 -0.36200
O 	O 	0.13068 0.12000 0.34264 -0.42200
C 	C 	0.14463 0.07257 0.26555 0.31100
O 	O 	0.08579 0.24563 0.38073 -0.40200
C 	C 	0.08615 0.31482 0.38358 0.33000
C 	C 	0.05998 0.20652 0.05830 0.22400
Eu	Eu	0.63627 0.25520 0.72538 2.30100
O 	O 	0.64732 0.06092 0.58238 -0.14500
C 	C 	0.70766 0.31269 0.75965 0.23100
O 	O 	0.59310 0.25701 0.98237 -0.23100
O 	O 	0.58171 0.23316 0.77221 -0.44400
O 	O 	0.60036 0.38058 0.71483 -0.20900
O 	O 	0.73654 0.32697 0.73145 -0.13000
O 	O 	0.69064 0.27665 0.67051 -0.33500
O 	O 	0.63686 0.16947 0.58866 -0.37700
C 	C 	0.64988 0.11115 0.64259 0.21900
O 	O 	0.62675 0.32896 0.55030 -0.37900
C 	C 	0.61271 0.38456 0.59957 0.23600
C 	C 	0.57289 0.23792 0.90810 0.30400
C 	C 	0.35833 0.55357 0.19506 -0.14700
N 	N 	0.32324 0.53916 0.18275 -0.06700
C 	C 	0.31078 0.57300 0.06231 -0.02200
C 	C 	0.27649 0.54309 0.04161 -0.03300
N 	N 	0.26279 0.50061 0.16180 -0.04200
C 	C 	0.22844 0.47856 0.14930 -0.12600
C 	C 	0.22340 0.40276 0.18432 0.47800
F 	F 	0.23669 0.38528 0.30489 -0.39800
F 	F 	0.23957 0.37057 0.08402 -0.40900
C 	C 	0.18673 0.38130 0.19760 0.35300
F 	F 	0.17094 0.41353 0.09533 -0.41400
F 	F 	0.17313 0.39951 0.31923 -0.38200
C 	C 	0.26639 0.53582 0.28452 -0.02800
C 	C 	0.30270 0.54919 0.30574 -0.02600
H 	H 	0.36570 0.52873 0.29058 0.08900
H 	H 	0.37230 0.53083 0.11277 0.08900
H 	H 	0.32730 0.56688 -0.02823 0.05200
H 	H 	0.30954 0.62742 0.07363 0.04600
H 	H 	0.27826 0.51201 -0.04561 0.07400
H 	H 	0.26024 0.58430 0.01687 0.05300
H 	H 	0.21144 0.50525 0.21521 0.11900
H 	H 	0.22131 0.48945 0.04460 0.12100
H 	H 	0.25421 0.58414 0.27616 0.05700
H 	H 	0.25467 0.50540 0.37425 0.09600
H 	H 	0.30957 0.51416 0.38932 0.07100
H 	H 	0.30623 0.60071 0.33613 0.06400
C 	C 	0.83460 0.93548 0.65972 -0.14900
N 	N 	0.79869 0.92802 0.67628 -0.07200
C 	C 	0.78495 0.95660 0.79933 -0.02600
C 	C 	0.77127 0.02559 0.76843 -0.04100
N 	N 	0.74619 0.02481 0.66846 -0.04400
C 	C 	0.71256 0.02802 0.72969 -0.13200
C 	C 	0.70403 0.10083 0.74854 0.47200
F 	F 	0.71620 0.14196 0.63683 -0.40600
F 	F 	0.71892 0.12175 0.85907 -0.37100
C 	C 	0.66686 0.10867 0.77228 0.36000
F 	F 	0.66214 0.16660 0.83408 -0.53800
F 	F 	0.65280 0.05658 0.85906 -0.39600
C 	C 	0.74847 -0.03151 0.58201 -0.03900
C 	C 	0.78398 -0.04776 0.55198 -0.04100
H 	H 	0.84351 0.93479 0.55208 0.08500
H 	H 	0.84393 0.98368 0.69393 0.08800
H 	H 	0.80310 0.96056 0.87607 0.06600
H 	H 	0.76494 0.92187 0.84709 0.06500
H 	H 	0.79177 0.06078 0.72691 0.08500
H 	H 	0.76197 0.04454 0.86445 0.10600
H 	H 	0.69494 0.00631 0.66387 0.10800
H 	H 	0.70922 -0.00248 0.82788 0.12100
H 	H 	0.73485 0.92289 0.63145 0.06500
H 	H 	0.73765 -0.01786 0.48547 0.07300
H 	H 	0.79758 -0.00215 0.50254 0.06300
H 	H 	0.78495 0.91270 0.48039 0.05700
C 	C 	0.15543 0.00884 0.33432 -0.14800
N 	N 	0.19101 0.00128 0.31945 -0.06900
C 	C 	0.21051 0.05913 0.35856 -0.02500
C 	C 	0.24713 1.04613 0.34718 -0.02400
N 	N 	0.25206 0.97644 0.31740 -0.04100
C 	C 	0.28663 0.95999 0.32140 -0.13700
C 	C 	0.29132 0.91913 0.45475 0.47600
F 	F 	0.27522 0.85711 0.45464 -0.41000
F 	F 	0.27742 0.95121 0.56050 -0.37700
C 	C 	0.32740 0.91005 0.48011 0.35200
F 	F 	0.32875 0.88174 0.61027 -0.34200
F 	F 	0.34438 0.97149 0.47051 -0.37100
C 	C 	0.23883 0.96351 0.18769 -0.02600
C 	C 	0.20284 0.98183 0.18626 -0.01300
H 	H 	0.14226 -0.03447 0.29623 0.08600
H 	H 	0.14785 0.00740 0.44348 0.09800
H 	H 	0.20302 0.06829 0.46420 0.07000
H 	H 	0.20640 0.10491 0.29351 0.05000
H 	H 	0.25761 1.05653 0.44344 0.10400
H 	H 	0.25988 1.08128 0.26659 0.06400
H 	H 	0.29416 0.92966 0.23732 0.10100
H 	H 	0.30309 1.00589 0.31022 0.12100
H 	H 	0.25352 -0.00749 0.10301 0.05400
H 	H 	0.24029 0.90961 0.17183 0.07400
H 	H 	0.18795 0.93790 0.15964 0.06100
H 	H 	0.20071 0.02326 0.10759 0.05500
C 	C 	0.77598 0.67296 0.72459 -0.14300
N 	N 	0.74980 0.65097 0.82969 -0.07200
C 	C 	0.75881 0.59146 0.91380 -0.02900
C 	C 	0.72860 0.54978 0.97677 -0.03500
N 	N 	0.70886 0.52354 0.87185 -0.03400
C 	C 	0.71557 0.45362 0.84593 -0.13000
C 	C 	0.68522 0.40727 0.88891 0.46800
F 	F 	0.66135 0.42140 0.80176 -0.41600
F 	F 	0.67351 0.42018 1.01715 -0.34600
C 	C 	0.69183 0.33219 0.89110 0.34900
F 	F 	0.66257 0.29600 0.92153 -0.49400
F 	F 	0.71197 0.31583 0.99282 -0.34500
C 	C 	0.71032 0.56832 0.74591 -0.03600
C 	C 	0.71782 0.64150 0.77183 -0.03000
H 	H 	0.76786 0.71395 0.65567 0.08100
H 	H 	0.78248 0.63139 0.66233 0.08800
H 	H 	0.77334 0.60826 0.99550 0.06000
H 	H 	0.77401 0.55842 0.85409 0.06200
H 	H 	0.71334 0.58188 1.03827 0.09500
H 	H 	0.73605 0.50934 1.04877 0.09300
H 	H 	0.72193 0.44881 0.73737 0.10500
H 	H 	0.73674 0.43558 0.89905 0.11700
H 	H 	0.72961 0.55454 0.67131 0.06700
H 	H 	0.68655 0.56395 0.70026 0.12500
H 	H 	0.69847 0.65748 0.84368 0.08200
H 	H 	0.71631 0.67357 0.67695 0.06300
C 	C 	0.45154 0.62987 0.55057 -0.14800
N 	N 	0.46404 0.56526 0.51559 -0.07100
C 	C 	0.49195 0.57374 0.41229 -0.03000
C 	C 	0.52520 0.57435 0.47359 -0.03500
N 	N 	0.52922 0.51530 0.56897 -0.04600
C 	C 	0.55455 0.47136 0.52060 -0.13100
C 	C 	0.58872 0.49828 0.55125 0.47300
F 	F 	0.58869 0.50935 0.68642 -0.37800
F 	F 	0.59629 0.55877 0.47746 -0.37800
C 	C 	0.61558 0.45032 0.51494 0.36500
F 	F 	0.64553 0.48096 0.53352 -0.34200
F 	F 	0.61514 0.43862 0.38033 -0.36600
C 	C 	0.49832 0.47697 0.61211 -0.03100
C 	C 	0.47116 0.52448 0.63912 -0.03300
H 	H 	0.43518 0.62262 0.64448 0.09200
H 	H 	0.47188 0.66555 0.56891 0.10500
H 	H 	0.49083 0.62028 0.34550 0.07200
H 	H 	0.49045 0.53203 0.34603 0.06100
H 	H 	0.52783 0.61977 0.52902 0.09700
H 	H 	0.54436 0.57957 0.38906 0.10500
H 	H 	0.55033 0.42038 0.57250 0.09200
H 	H 	0.55345 0.46590 0.41107 0.11400
H 	H 	0.49124 0.44335 0.53449 0.05400
H 	H 	0.50134 0.44576 0.70678 0.06600
H 	H 	0.47884 0.55656 0.71856 0.06800
H 	H 	0.44866 0.49493 0.67954 0.05700
C 	C 	0.91745 0.90065 1.04202 -0.13700
N 	N 	0.94673 0.90447 1.11906 -0.05800
C 	C 	0.97695 0.91516 1.02892 -0.03100
C 	C 	0.98510 -0.01047 0.98505 -0.01900
N 	N 	0.98357 0.03289 0.09904 -0.05700
C 	C 	0.01243 0.07954 0.09908 -0.15800
C 	C 	0.00567 0.14724 0.02528 0.46300
F 	F 	0.99028 0.18605 0.11642 -0.40200
F 	F 	0.98473 0.13721 0.92521 -0.36500
C 	C 	0.03653 0.18577 -0.04164 0.34000
F 	F 	0.02705 0.24228 -0.11411 -0.36700
F 	F 	0.05235 0.14707 0.86837 -0.38700
C 	C 	0.97497 0.99649 0.23116 -0.02600
C 	C 	0.94373 0.95307 0.22327 -0.04600
H 	H 	0.89522 0.91315 1.10264 0.08800
H 	H 	0.91990 0.93652 0.95097 0.08800
H 	H 	0.97532 0.88683 0.93820 0.06700
H 	H 	0.99751 0.89481 1.08249 0.07100
H 	H 	0.96743 0.00692 0.91272 0.08800
H 	H 	1.00930 -0.00645 0.92761 0.07300
H 	H 	0.01812 0.08880 0.20352 0.10400
H 	H 	0.03466 0.05811 1.05447 0.12400
H 	H 	0.99511 0.96544 0.26331 0.05300
H 	H 	0.97015 1.03259 0.30803 0.07300
H 	H 	0.92406 0.98793 0.20404 0.06400
H 	H 	0.93728 0.92519 0.32255 0.06200
C 	C 	0.53861 0.21802 0.96325 -0.09300
N 	N 	0.52792 0.15278 -0.08151 -0.09600
C 	C 	0.54630 0.09722 -0.02351 -0.03300
C 	C 	0.52974 0.06391 0.10905 -0.03300
N 	N 	0.49492 0.04267 0.09980 -0.05700
C 	C 	0.48859 0.96985 0.12769 -0.12800
C 	C 	0.48302 0.95186 0.28068 0.47200
F 	F 	0.45410 0.97753 0.32690 -0.38400
F 	F 	0.50794 0.98058 0.34648 -0.37500
C 	C 	0.48189 0.87612 0.31772 0.36000
F 	F 	0.47746 0.86439 0.45626 -0.35000
F 	F 	0.51141 0.85114 0.27672 -0.37800
C 	C 	0.48177 0.06734 0.97277 -0.02800
C 	C 	0.49201 0.14130 0.94057 0.01300
H 	H 	0.52266 0.25728 0.92503 0.08300
H 	H 	0.53685 0.21640 0.07512 0.07100
H 	H 	0.57164 0.11376 -0.00570 0.06600
H 	H 	0.54860 0.05916 -0.09787 0.06700
H 	H 	0.53097 0.09967 0.18788 0.09100
H 	H 	0.54458 0.02160 0.14129 0.09900
H 	H 	0.46623 0.95281 0.08079 0.09400
H 	H 	0.50890 0.94220 0.08308 0.11300
H 	H 	0.49044 0.03824 0.88820 0.07800
H 	H 	0.45472 0.06187 0.98342 0.08300
H 	H 	0.48195 0.16882 0.02528 0.04000
H 	H 	0.48071 0.15997 0.84822 0.06000
C 	C 	0.06676 0.34465 0.49443 -0.14900
N 	N 	0.04086 0.38504 0.43968 -0.06400
C 	C 	0.01151 0.38439 0.53509 -0.03800
C 	C 	0.00982 0.44873 0.60779 -0.03100
N 	N 	0.00816 0.50846 0.51194 -0.04700
C 	C 	0.97416 0.52650 0.49426 -0.12600
C 	C 	0.96221 0.57423 0.59839 0.47800
F 	F 	-0.01532 0.62778 0.59720 -0.40400
F 	F 	0.95945 0.54115 0.72583 -0.40700
C 	C 	0.92886 0.60043 0.56428 0.35300
F 	F 	0.90717 0.54741 0.54798 -0.39000
F 	F 	0.93261 0.64059 0.44458 -0.38800
C 	C 	0.02589 0.50168 0.37941 -0.03300
C 	C 	0.05354 0.45347 0.38980 -0.03200
H 	H 	0.08328 0.37442 0.55298 0.10600
H 	H 	0.05626 0.30199 0.56378 0.12200
H 	H 	0.00979 0.34088 0.61123 0.09200
H 	H 	-0.01043 0.37920 0.47733 0.07800
H 	H 	0.03198 0.45459 0.66405 0.08600
H 	H 	-0.01115 0.44340 0.68456 0.11200
H 	H 	0.97235 0.55269 0.39292 0.12700
H 	H 	0.95748 0.48104 0.49991 0.12400
H 	H 	0.00926 0.48280 0.30596 0.06700
H 	H 	0.03632 0.55162 0.33815 0.07600
H 	H 	0.07137 0.47381 0.45676 0.07300
H 	H 	0.06610 0.45216 0.28812 0.08200
