data_crystal

_cell_length_a 37.43440
_cell_length_b 20.27070
_cell_length_c 11.80900
_cell_angle_alpha 85.90580
_cell_angle_beta  90.00320
_cell_angle_gamma 86.28450

_symmetry_space_group_name_	'P 1'
_symmetry_space_group_name_H-M	'P 1'

loop_
_symmetry_equiv_pos_as_xyz
  x,y,z

loop_
_atom_site_label
_atom_site_type_symbol
_atom_site_fract_x
_atom_site_fract_y
_atom_site_fract_z
_atom_site_charge
Eu	Eu	0.40032 0.72908 0.20934 1.77500
O 	O 	0.35873 0.84840 0.07156 -0.30400
C 	C 	0.33774 0.63726 0.23165 0.27900
O 	O 	0.44001 0.81740 0.04890 -0.33200
O 	O 	0.42864 0.82298 0.23591 -0.43200
O 	O 	0.40477 0.61633 0.52409 -0.22200
O 	O 	0.33611 0.64043 0.33412 -0.24100
O 	O 	0.37066 0.63758 0.17707 -0.44900
O 	O 	0.34704 0.78631 0.23256 -0.42000
C 	C 	0.34355 0.84463 0.16306 0.28200
O 	O 	0.39870 0.70557 0.40098 -0.39500
C 	C 	0.41718 0.64696 0.44230 0.27800
C 	C 	0.44192 0.84878 0.13298 0.28600
Eu	Eu	0.88231 0.76733 0.78623 1.72600
O 	O 	0.84071 0.87411 0.49309 -0.22700
C 	C 	0.81141 0.69506 0.80436 0.28800
O 	O 	0.92819 0.85185 0.93569 -0.32600
O 	O 	0.94218 0.77722 0.80671 -0.43300
O 	O 	0.93179 0.71549 0.59421 -0.26200
O 	O 	0.83253 0.65573 0.85619 -0.31000
O 	O 	0.82229 0.75703 0.76563 -0.44500
O 	O 	0.88210 0.81571 0.60476 -0.38900
C 	C 	0.85478 0.86543 0.58648 0.26700
O 	O 	0.89585 0.66404 0.72235 -0.40700
C 	C 	0.92165 0.66331 0.63660 0.28000
C 	C 	0.95127 0.82476 0.87928 0.28200
Eu	Eu	0.11480 0.25494 0.22234 1.83700
O 	O 	0.17469 0.15302 0.18848 -0.31100
C 	C 	0.16929 0.35480 0.16893 0.27800
O 	O 	0.07762 0.20667 0.02926 -0.34900
O 	O 	0.09106 0.15617 0.20180 -0.43800
O 	O 	0.05820 0.36356 0.26799 -0.31900
O 	O 	0.17686 0.30742 0.11316 -0.33500
O 	O 	0.13977 0.35294 0.24045 -0.43500
O 	O 	0.15715 0.20497 0.34329 -0.42600
C 	C 	0.18126 0.16458 0.28591 0.28900
O 	O 	0.07789 0.27063 0.37197 -0.43300
C 	C 	0.05430 0.32601 0.35167 0.28500
C 	C 	0.07793 0.15590 0.09165 0.28400
Eu	Eu	0.62409 0.23932 0.81969 1.82000
O 	O 	0.63784 0.08100 0.85727 -0.28000
C 	C 	0.67839 0.33930 0.84792 0.28000
O 	O 	0.57079 0.27404 0.98083 -0.33100
O 	O 	0.57768 0.18105 0.88860 -0.42800
O 	O 	0.59192 0.37109 0.79564 -0.32400
O 	O 	0.67223 0.31795 0.94478 -0.33800
O 	O 	0.66899 0.30301 0.75813 -0.44000
O 	O 	0.64674 0.15716 0.71291 -0.42600
C 	C 	0.65803 0.10181 0.78382 0.25400
O 	O 	0.58911 0.28985 0.67657 -0.42300
C 	C 	0.58140 0.35487 0.70445 0.28300
C 	C 	0.56032 0.21935 0.96795 0.27000
C 	C 	0.30497 0.63391 0.16458 -0.05100
C 	C 	0.29812 0.67943 0.07112 -0.04300
C 	C 	0.26743 0.67630 0.00388 0.07600
N 	N 	0.26016 0.72360 0.90837 -0.13300
C 	C 	0.22782 0.74334 0.86301 0.01600
C 	C 	0.23290 0.78903 0.77360 0.01400
N 	N 	0.26811 0.79811 0.76206 -0.11300
C 	C 	0.28388 0.75751 0.84562 0.09100
C 	C 	0.24415 0.62595 0.03020 -0.07800
C 	C 	0.25037 0.57997 0.12444 0.01400
C 	C 	0.22770 0.52033 0.14078 0.02600
C 	C 	0.22568 0.48817 0.26285 -0.05200
C 	C 	0.20678 0.43273 0.27180 0.00100
C 	C 	0.19100 0.41491 0.15868 -0.06400
C 	C 	0.16905 0.47788 0.11359 -0.00200
C 	C 	0.18803 0.53306 0.10509 -0.05200
C 	C 	0.22326 0.40922 0.07870 -0.00300
C 	C 	0.24229 0.46407 0.06957 -0.05200
C 	C 	0.28115 0.58469 0.19144 -0.02500
H 	H 	0.31635 0.71801 0.05228 0.03400
H 	H 	0.20242 0.72659 0.89305 0.02700
H 	H 	0.21214 0.81418 0.71979 0.03200
H 	H 	0.31261 0.75226 0.85853 0.01800
H 	H 	0.22181 0.62118 -0.02600 0.05300
H 	H 	0.23629 0.50900 0.33693 0.04800
H 	H 	0.20259 0.40530 0.35251 0.03800
H 	H 	0.14065 0.47944 0.09402 0.03200
H 	H 	0.17530 0.58168 0.08117 0.04400
H 	H 	0.23105 0.36536 0.03463 0.04600
H 	H 	0.26614 0.46676 0.01761 0.04800
H 	H 	0.28777 0.54841 0.26122 0.04800
C 	C 	0.84386 0.90938 0.67651 -0.09700
C 	C 	0.86979 0.92937 0.75017 -0.08000
C 	C 	0.86109 0.97862 0.82535 0.07600
N 	N 	0.88838 0.00354 0.89482 -0.13700
C 	C 	0.88328 0.03563 0.99020 0.02300
C 	C 	0.91612 0.05136 0.02873 0.00400
N 	N 	0.94184 0.03015 0.95780 -0.11400
C 	C 	0.92399 0.00115 0.87733 0.09300
C 	C 	0.82561 0.00537 0.82908 -0.08400
C 	C 	0.79849 -0.01727 0.76195 0.00600
C 	C 	0.76017 0.01344 0.76791 0.02500
C 	C 	0.73038 -0.03171 0.73824 -0.05000
C 	C 	0.69664 -0.00221 0.74208 0.00000
C 	C 	0.69542 0.06974 0.77547 -0.06400
C 	C 	0.71558 0.06595 0.88907 -0.01000
C 	C 	0.74909 0.03608 0.88579 -0.05300
C 	C 	0.72015 0.10531 0.69057 -0.00700
C 	C 	0.75388 0.07593 0.68684 -0.05200
C 	C 	0.80835 0.93619 0.68254 -0.01800
H 	H 	0.89699 0.90846 0.74497 0.01500
H 	H 	0.85783 0.04660 0.03022 0.02100
H 	H 	0.92109 0.07641 0.10452 0.03400
H 	H 	0.93744 0.97851 0.80734 0.01800
H 	H 	0.81931 0.04594 0.88162 0.05300
H 	H 	0.73507 0.91649 0.72209 0.04300
H 	H 	0.67292 -0.02879 0.72868 0.04500
H 	H 	0.70400 0.08329 0.96674 0.02300
H 	H 	0.76538 0.02717 0.96194 0.04200
H 	H 	0.71218 0.15035 0.63902 0.03700
H 	H 	0.77452 0.09611 0.63254 0.04600
H 	H 	0.78866 0.92125 0.62408 0.04300
C 	C 	0.21467 0.13675 0.34239 -0.04600
C 	C 	0.22523 0.15978 0.44567 -0.05000
C 	C 	0.25687 0.13359 0.50045 0.08200
N 	N 	0.26744 0.15693 0.60711 -0.13500
C 	C 	0.30087 0.15490 0.65037 0.01600
C 	C 	0.29907 0.18222 0.75356 0.01300
N 	N 	0.26480 0.20137 0.77606 -0.11400
C 	C 	0.24632 0.18528 0.68510 0.08700
C 	C 	0.27800 0.08408 0.44996 -0.08000
C 	C 	0.26843 0.06158 0.34479 0.01600
C 	C 	0.28975 0.00485 0.29326 0.02500
C 	C 	0.29167 1.01063 0.16229 -0.05400
C 	C 	0.30903 0.95747 0.11723 -0.00300
C 	C 	0.32337 0.90370 0.20707 -0.06500
C 	C 	0.34665 0.94010 0.28589 -0.00300
C 	C 	0.32934 -0.00671 0.33021 -0.05000
C 	C 	0.29062 0.88573 0.27816 0.00200
C 	C 	0.27317 0.93845 0.32321 -0.05100
C 	C 	0.23620 0.08745 0.29321 -0.03000
H 	H 	0.20905 0.19872 0.48279 0.05900
H 	H 	0.32488 0.13565 0.60998 0.02700
H 	H 	0.32144 0.18777 0.80926 0.03400
H 	H 	0.21751 0.19336 0.67764 0.01800
H 	H 	0.30125 0.06169 0.49533 0.05500
H 	H 	0.28140 0.05374 0.10955 0.04800
H 	H 	0.31292 0.95492 0.02656 0.04200
H 	H 	0.37503 0.92762 0.29990 0.03600
H 	H 	0.34369 0.02675 0.37840 0.04300
H 	H 	0.28185 0.83576 0.29204 0.04700
H 	H 	0.24955 0.93335 0.37571 0.04900
H 	H 	0.22753 0.06833 0.21519 0.05200
C 	C 	0.77441 0.67742 0.78167 -0.05000
C 	C 	0.74915 0.72639 0.73651 -0.05000
C 	C 	0.71423 0.71084 0.71123 0.08000
N 	N 	0.68808 0.76197 0.66898 -0.13500
C 	C 	0.65242 0.76326 0.68426 0.01600
C 	C 	0.63758 0.82199 0.63405 0.01200
N 	N 	0.66362 0.85781 0.58738 -0.11600
C 	C 	0.69404 0.81981 0.61030 0.08300
C 	C 	0.70479 0.64516 0.73099 -0.08100
C 	C 	0.72920 0.59521 0.77911 0.01500
C 	C 	0.71699 0.52485 0.80016 0.02500
C 	C 	0.74088 0.47500 0.87696 -0.05200
C 	C 	0.72845 0.41321 0.89022 -0.00200
C 	C 	0.69312 0.40645 0.82773 -0.06400
C 	C 	0.66739 0.46141 0.86977 -0.00200
C 	C 	0.67987 0.52290 0.85633 -0.05200
C 	C 	0.70061 0.42859 0.70339 -0.00200
C 	C 	0.71297 0.49042 0.68910 -0.05300
C 	C 	0.76434 0.61195 0.80239 -0.03000
H 	H 	0.75650 0.77703 0.72235 0.05500
H 	H 	0.63820 0.72524 0.73068 0.02600
H 	H 	0.60942 0.83786 0.63176 0.03400
H 	H 	0.72017 0.83444 0.58313 0.01500
H 	H 	0.67815 0.63265 0.70868 0.05400
H 	H 	0.76438 0.48687 0.92290 0.04400
H 	H 	0.74198 0.37321 0.94313 0.03500
H 	H 	0.64160 0.45255 0.90800 0.04000
H 	H 	0.66468 0.56619 0.88422 0.04300
H 	H 	0.69709 0.39815 0.63273 0.04100
H 	H 	0.71984 0.51254 0.60618 0.04500
H 	H 	0.78435 0.57437 0.83355 0.04900
C 	C 	0.45223 0.62383 0.39590 -0.09900
C 	C 	0.46999 0.66331 0.31459 -0.04000
C 	C 	0.50466 0.64444 0.27975 0.05900
N 	N 	0.52327 0.68668 0.19960 -0.13900
C 	C 	0.54687 0.66750 0.12111 0.01000
C 	C 	0.55879 0.72354 0.06445 0.01100
N 	N 	0.54295 0.77782 0.10766 -0.11800
C 	C 	0.52138 0.75352 0.19005 0.08100
C 	C 	0.52213 0.58580 0.32809 -0.07500
C 	C 	0.50509 0.54550 0.41073 0.00300
C 	C 	0.52614 0.49159 0.48389 0.03000
C 	C 	0.50517 0.43063 0.52028 -0.05500
C 	C 	0.52331 0.38564 0.59409 0.00200
C 	C 	0.56103 0.40486 0.62385 -0.06500
C 	C 	0.57950 0.41631 0.50874 -0.00100
C 	C 	0.56127 0.46128 0.43506 -0.05400
C 	C 	0.55537 0.47429 0.66830 -0.00100
C 	C 	0.53727 0.51915 0.59544 -0.05400
C 	C 	0.47000 0.56492 0.44267 -0.01300
H 	H 	0.45740 0.70969 0.28050 -0.08300
H 	H 	0.55485 0.61664 0.10552 0.02500
H 	H 	0.57802 0.72474 -0.00390 0.03000
H 	H 	0.50536 0.78463 0.24390 0.01500
H 	H 	0.54974 0.57478 0.30627 0.05200
H 	H 	0.47881 0.42259 0.48789 0.05200
H 	H 	0.51217 0.33979 0.62557 0.03700
H 	H 	0.60398 0.38910 0.48530 0.03500
H 	H 	0.57019 0.47057 0.34844 0.04300
H 	H 	0.56487 0.48760 0.74990 0.04200
H 	H 	0.53159 0.57036 0.61495 0.04700
H 	H 	0.45725 0.53601 0.50992 0.04900
C 	C 	0.98888 0.84318 0.88259 -0.04700
C 	C 	1.01423 0.80927 0.81702 -0.05200
C 	C 	0.04906 0.82998 0.80479 0.08200
N 	N 	0.07438 0.79683 0.73260 -0.13500
C 	C 	0.11040 0.79649 0.73695 0.01500
C 	C 	0.12406 0.76059 0.65053 0.01200
N 	N 	0.09701 0.73838 0.59161 -0.11500
C 	C 	0.06719 0.76127 0.64398 0.08500
C 	C 	0.05834 0.88537 0.85959 -0.08200
C 	C 	0.03434 0.91805 0.93196 0.01700
C 	C 	0.04520 -0.01845 0.98065 0.02800
C 	C 	0.02563 0.00360 0.08791 -0.05100
C 	C 	0.03617 0.06203 0.12336 0.00200
C 	C 	0.06550 0.09283 0.04974 -0.06800
C 	C 	0.09576 0.03826 0.04836 -0.00500
C 	C 	0.08517 -0.01999 1.01406 -0.04700
C 	C 	0.05005 0.09914 0.92877 0.00400
C 	C 	0.03941 0.04121 0.89303 -0.04900
C 	C 	0.99940 0.89608 0.94342 -0.03100
H 	H 	1.00668 0.76695 0.77401 0.06300
H 	H 	0.12575 0.82018 0.79819 0.02600
H 	H 	0.15212 0.75132 0.63123 0.03200
H 	H 	0.04047 0.75287 0.61552 0.02000
H 	H 	0.08422 0.90446 0.84257 0.05500
H 	H 	0.00653 0.97483 0.13558 0.04800
H 	H 	0.02545 0.08347 0.19884 0.03600
H 	H 	0.12305 0.04428 0.07499 0.04000
H 	H 	0.10338 0.93606 1.01557 0.04400
H 	H 	0.04693 0.14546 0.87667 0.04400
H 	H 	0.02687 0.03842 0.81075 0.05300
H 	H 	0.98011 0.92096 0.99628 0.05600
C 	C 	0.53033 0.19484 1.03791 -0.03800
C 	C 	0.51206 0.23705 0.11146 -0.05900
C 	C 	0.48498 0.21398 0.18308 0.08400
N 	N 	0.46697 0.25666 0.26066 -0.13500
C 	C 	0.45316 0.23846 0.36257 0.01600
C 	C 	0.43875 0.29453 0.40892 0.01100
N 	N 	0.44305 0.34790 0.33650 -0.11700
C 	C 	0.46039 0.32304 0.24714 0.08500
C 	C 	0.47602 0.14816 0.17981 -0.08400
C 	C 	0.49331 0.10496 0.10604 0.01500
C 	C 	0.48133 0.03426 0.10829 0.02200
C 	C 	0.50037 0.98523 0.03000 -0.05100
C 	C 	0.48754 0.92365 0.03880 -0.00100
C 	C 	0.45685 0.91613 0.12425 -0.06200
C 	C 	0.47221 0.93672 0.23588 -0.00300
C 	C 	0.48498 0.99820 0.22763 -0.05300
C 	C 	0.42859 0.97158 0.08707 -0.01000
C 	C 	0.44137 1.03298 1.07800 -0.04500
C 	C 	0.52057 0.12913 1.03471 -0.03200
H 	H 	0.51947 0.28761 0.11505 0.06100
H 	H 	0.45387 0.18836 0.40154 0.02700
H 	H 	0.42605 0.29641 0.49102 0.03300
H 	H 	0.46757 0.35334 0.17248 0.01600
H 	H 	0.45499 0.13028 0.23450 0.05500
H 	H 	0.52255 0.99584 -0.02551 0.04700
H 	H 	0.49885 0.88350 -0.00880 0.04400
H 	H 	0.47414 0.90481 0.31371 0.04100
H 	H 	0.49738 0.01876 0.29918 0.04600
H 	H 	0.40080 0.96338 1.06960 0.04500
H 	H 	0.42451 0.07700 1.05155 0.04600
H 	H 	0.53465 0.09768 0.97735 0.05400
C 	C 	0.02481 0.33853 0.43187 -0.04900
C 	C 	0.01378 0.28605 0.50466 -0.05200
C 	C 	0.98626 0.29651 0.58298 0.08200
N 	N 	0.97467 0.24250 0.65678 -0.13500
C 	C 	0.94187 0.23679 0.70174 0.01500
C 	C 	0.94231 0.17811 0.76783 0.01400
N 	N 	0.97515 0.14685 0.76513 -0.11600
C 	C 	0.99418 0.18742 0.69660 0.08500
C 	C 	0.97045 0.36064 0.58985 -0.08300
C 	C 	0.98145 0.41453 0.51962 0.01600
C 	C 	0.96590 0.48370 0.54253 0.02500
C 	C 	0.97597 0.54330 0.46249 -0.05200
C 	C 	0.96134 0.60281 0.49283 -0.00300
C 	C 	0.93780 0.59802 0.59970 -0.06300
C 	C 	0.91003 0.54874 0.57274 -0.00100
C 	C 	0.92466 0.48927 0.54257 -0.05400
C 	C 	0.96205 0.56126 0.69125 0.00100
C 	C 	-0.02329 0.50194 0.66158 -0.05400
C 	C 	0.00835 0.40251 0.43866 -0.03100
H 	H 	0.02623 0.23665 0.49917 0.05700
H 	H 	0.91916 0.27215 0.68678 0.02600
H 	H 	0.91999 0.15918 0.81518 0.03600
H 	H 	0.02223 0.17703 0.67814 0.01500
H 	H 	0.95023 0.36934 0.65355 0.05500
H 	H 	0.99141 0.54023 0.38530 0.04400
H 	H 	0.96499 0.64871 0.44237 0.04500
H 	H 	0.88131 0.55994 0.57500 0.03900
H 	H 	0.90840 0.44982 0.51929 0.04400
H 	H 	-0.03223 0.58076 0.77205 0.03000
H 	H 	-0.00522 0.47076 0.71769 0.04600
H 	H 	0.01782 0.44241 0.38375 0.04900
