data_crystal

_cell_length_a 35.86710
_cell_length_b 20.46710
_cell_length_c 12.79200
_cell_angle_alpha 93.21200
_cell_angle_beta  88.85450
_cell_angle_gamma 92.95530

_symmetry_space_group_name_	'P 1'
_symmetry_space_group_name_H-M	'P 1'

loop_
_symmetry_equiv_pos_as_xyz
  x,y,z

loop_
_atom_site_label
_atom_site_type_symbol
_atom_site_fract_x
_atom_site_fract_y
_atom_site_fract_z
_atom_site_charge
Eu	Eu	0.38899 0.76663 0.25674 1.82600
O 	O 	0.33532 0.91469 0.28420 -0.23900
C 	C 	0.31965 0.69729 0.15702 0.29400
O 	O 	0.48069 0.90066 0.17114 -0.22700
O 	O 	0.44017 0.83752 0.26043 -0.42400
O 	O 	0.44694 0.66643 0.27911 -0.32600
O 	O 	0.33428 0.72835 0.08741 -0.32800
O 	O 	0.33763 0.69611 0.25227 -0.44600
O 	O 	0.35971 0.83601 0.37379 -0.40600
C 	C 	0.32977 0.86426 0.32968 0.28000
O 	O 	0.41062 0.71878 0.39877 -0.42500
C 	C 	0.43909 0.67726 0.37135 0.30100
C 	C 	0.44995 0.87234 0.17215 0.30300
Eu	Eu	0.88167 0.74619 0.76061 1.81600
O 	O 	0.84144 0.87006 0.80628 -0.30600
C 	C 	0.82791 0.64790 0.84847 0.27600
O 	O 	0.91661 0.79984 0.94929 -0.33800
O 	O 	0.92090 0.83558 0.78658 -0.42900
O 	O 	0.97061 0.68118 0.66639 -0.24700
O 	O 	0.82675 0.69583 0.90921 -0.32800
O 	O 	0.84195 0.65615 0.74782 -0.44300
O 	O 	0.84534 0.80453 0.65950 -0.42300
C 	C 	0.83705 0.86359 0.71200 0.29500
O 	O 	0.91498 0.71306 0.61546 -0.41700
C 	C 	0.93889 0.66497 0.63968 0.26500
C 	C 	0.92316 0.84601 0.89442 0.28800
Eu	Eu	0.12705 0.26571 0.24519 1.65500
O 	O 	0.19617 0.18186 0.24993 -0.29600
C 	C 	0.19174 0.36725 0.31324 0.27700
O 	O 	0.07688 0.21992 0.13932 -0.19900
O 	O 	0.07915 0.21579 0.14888 -0.14000
O 	O 	0.05553 0.33792 0.26770 -0.31400
O 	O 	0.22495 0.37988 0.32576 -0.22400
O 	O 	0.17610 0.30760 0.34465 -0.40200
O 	O 	0.13565 0.16301 0.29660 -0.41300
C 	C 	0.17098 0.14217 0.27022 0.28700
O 	O 	0.08591 0.28091 0.38236 -0.41100
C 	C 	0.05713 0.32009 0.35665 0.29400
C 	C 	0.06316 0.25224 0.07448 0.07300
Eu	Eu	0.61948 0.23404 0.76908 1.76500
O 	O 	0.67397 0.11790 0.69294 -0.28200
C 	C 	0.66642 0.35859 0.85633 0.28200
O 	O 	0.56502 0.17295 0.92154 -0.32400
O 	O 	0.58791 0.13437 0.76636 -0.42400
O 	O 	0.53891 0.31330 0.79975 -0.26800
O 	O 	0.65547 0.40712 0.90459 -0.24000
O 	O 	0.64827 0.33593 0.76551 -0.43200
O 	O 	0.65224 0.20622 0.62012 -0.41500
C 	C 	0.68021 0.16354 0.63688 0.29200
O 	O 	0.57479 0.27198 0.66798 -0.41100
C 	C 	0.55740 0.32355 0.72089 0.28100
C 	C 	0.56121 0.13374 0.84681 0.29200
C 	C 	0.28309 0.66173 0.14064 -0.07300
C 	C 	0.26457 0.63115 0.22385 0.00900
C 	C 	0.22980 0.59833 0.20911 -0.04000
C 	C 	0.21312 0.59390 0.11017 -0.01000
C 	C 	0.17603 0.55928 0.09388 0.14300
O 	O 	0.15695 0.57332 0.02131 -0.19900
C 	C 	0.16083 0.50962 0.16508 -0.06900
C 	C 	0.12374 0.51154 0.20151 0.04700
N 	N 	0.11043 0.46892 0.27257 -0.11900
C 	C 	0.13186 0.42244 0.30825 0.03500
C 	C 	0.16845 0.41629 0.27086 -0.16000
C 	C 	0.18305 0.46076 0.19928 0.03000
C 	C 	0.23153 0.62511 0.02719 -0.03300
C 	C 	0.26612 0.65867 0.04219 0.00400
H 	H 	0.27671 0.63312 0.30089 0.04900
H 	H 	0.21581 0.57715 0.27580 0.05300
H 	H 	0.10584 0.54849 0.17667 0.04300
H 	H 	0.12098 0.39190 0.36881 -0.00000
H 	H 	0.21159 0.45757 0.17064 0.02900
H 	H 	0.21924 0.62332 -0.04964 0.05800
H 	H 	0.27963 0.68195 -0.02354 0.04800
C 	C 	0.82449 0.91870 0.65363 -0.07000
C 	C 	0.81717 0.97927 0.70571 0.00700
C 	C 	0.80792 0.03256 0.64913 -0.04000
C 	C 	0.80611 0.02644 0.53943 -0.01200
C 	C 	0.80040 0.08417 0.47784 0.14100
O 	O 	0.81655 0.08835 0.39342 -0.19100
C 	C 	0.77624 0.13751 0.51507 -0.05600
C 	C 	0.78673 0.20256 0.49426 0.05400
N 	N 	0.76347 0.25138 0.52022 -0.11500
C 	C 	0.72945 0.23937 0.56548 0.06900
C 	C 	0.71745 0.17535 0.58836 -0.09800
C 	C 	0.74146 0.12425 0.56422 0.02600
C 	C 	0.81278 0.96568 0.48768 -0.03100
C 	C 	0.82164 0.91226 0.54418 0.00400
H 	H 	0.81950 0.98599 0.78999 0.04900
H 	H 	0.80360 0.07921 0.69074 0.04900
H 	H 	0.81337 0.21450 0.45688 0.04500
H 	H 	0.71189 0.28003 0.58440 0.03000
H 	H 	0.73253 0.07427 0.57954 0.04200
H 	H 	0.81158 0.95973 0.40312 0.05800
H 	H 	0.82712 0.86636 0.50174 0.04800
C 	C 	0.17751 0.07195 0.26700 -0.07400
C 	C 	0.20563 0.04840 0.32672 0.00900
C 	C 	0.21004 0.98102 0.32879 -0.04000
C 	C 	0.18781 0.93604 0.26616 -0.00900
C 	C 	0.19168 0.86376 0.26731 0.14100
O 	O 	0.16604 0.82712 0.23487 -0.19400
C 	C 	0.22481 0.83391 0.30894 -0.05500
C 	C 	0.22033 0.77566 0.36182 0.05200
N 	N 	0.25018 0.74962 0.40447 -0.11800
C 	C 	0.28518 0.77767 0.39621 0.07100
C 	C 	0.29163 0.83425 0.34023 -0.10600
C 	C 	0.26108 0.86166 0.29530 0.02400
C 	C 	0.15991 0.96053 0.20540 -0.03300
C 	C 	0.15442 0.02770 0.20721 0.00400
H 	H 	0.22326 0.08205 0.37467 0.04600
H 	H 	0.23039 0.96468 0.38131 0.05100
H 	H 	0.19299 0.75147 0.37095 0.04400
H 	H 	0.30796 0.75522 0.43242 0.02700
H 	H 	0.26551 0.90481 0.25047 0.04200
H 	H 	0.14197 0.92763 0.15713 0.05900
H 	H 	0.13237 0.04520 0.16101 0.03200
C 	C 	0.81754 0.58210 0.88489 -0.07000
C 	C 	0.81185 0.52814 0.81328 0.00300
C 	C 	0.80407 0.46545 0.84914 -0.03500
C 	C 	0.80266 0.45561 0.95700 -0.01500
C 	C 	0.79539 0.38915 0.99477 0.15000
O 	O 	0.81500 0.37021 0.06259 -0.19500
C 	C 	0.76452 0.34564 0.95226 -0.06700
C 	C 	0.76834 0.27797 0.93642 0.05700
N 	N 	0.73987 0.23899 0.89503 -0.12800
C 	C 	0.70697 0.26350 0.86907 0.09500
C 	C 	0.70139 0.33045 0.88601 -0.14500
C 	C 	0.73052 0.37143 0.92787 0.04400
C 	C 	0.80842 0.50944 1.02852 -0.02700
C 	C 	0.81533 0.57223 0.99284 -0.00200
H 	H 	0.81353 0.53432 0.72978 0.05000
H 	H 	0.79995 0.42431 0.79277 0.04900
H 	H 	0.79406 0.25630 0.95572 0.04200
H 	H 	0.68501 0.23066 0.83710 -0.09400
H 	H 	0.72688 0.42356 0.94044 0.03900
H 	H 	0.80732 0.50300 0.11200 0.05300
H 	H 	0.81989 0.61293 1.04982 0.04700
C 	C 	0.45931 0.64634 0.45370 -0.07300
C 	C 	0.48138 0.59285 0.42844 0.00700
C 	C 	0.49926 0.56218 0.50688 -0.04100
C 	C 	0.49624 0.58515 0.61247 -0.01000
C 	C 	0.51376 0.55074 0.69714 0.14200
O 	O 	0.50369 0.56128 0.78791 -0.19400
C 	C 	0.54197 0.50153 0.67400 -0.05400
C 	C 	0.57304 0.51549 0.60929 0.04800
N 	N 	0.59697 0.46802 0.58123 -0.11300
C 	C 	0.59206 0.40636 0.61495 0.07600
C 	C 	0.56216 0.39030 0.68275 -0.09700
C 	C 	0.53735 0.43901 0.71349 0.03300
C 	C 	0.47456 0.63944 0.63730 -0.03300
C 	C 	0.45620 0.66954 0.55883 0.00600
H 	H 	0.48422 0.57372 0.34815 0.04700
H 	H 	0.51475 0.51954 0.48431 0.04900
H 	H 	0.57789 0.56378 0.57965 0.03400
H 	H 	0.61186 0.37024 0.58983 0.03200
H 	H 	0.51376 0.42778 0.76484 0.05200
H 	H 	0.47153 0.65841 0.71764 0.05800
H 	H 	0.43963 0.71113 0.58052 0.05000
C 	C 	0.93028 0.91245 0.94234 -0.06400
C 	C 	0.94520 0.96295 0.88223 0.00500
C 	C 	0.95081 0.02643 0.92704 -0.03800
C 	C 	0.94055 0.04120 0.03232 -0.01300
C 	C 	0.94680 0.10820 0.08249 0.13700
O 	O 	0.93471 0.12017 0.17090 -0.18900
C 	C 	0.96982 0.15990 0.03234 -0.04100
C 	C 	0.95900 0.18680 -0.05995 0.03900
N 	N 	0.98158 0.23316 -0.10508 -0.10600
C 	C 	0.01475 0.25523 -0.06279 0.03000
C 	C 	0.02661 0.23028 0.02999 -0.02800
C 	C 	0.00335 0.18303 0.07808 -0.00100
C 	C 	0.92516 0.99029 0.09180 -0.03000
C 	C 	0.92041 0.92658 0.04759 0.00000
H 	H 	0.95278 0.95328 0.80064 0.04900
H 	H 	0.96319 0.06343 0.87839 0.04600
H 	H 	0.93290 0.17042 -0.09633 0.03400
H 	H 	0.03212 0.29118 -0.10243 0.02800
H 	H 	0.01143 0.16329 0.15063 0.05400
H 	H 	0.91706 0.99940 0.17313 0.06200
H 	H 	0.90837 0.88852 0.09532 0.04800
C 	C 	0.52801 0.08767 0.84018 -0.06800
C 	C 	0.50092 0.08724 0.92116 0.00900
C 	C 	0.46913 0.04489 0.91329 -0.03400
C 	C 	0.46396 0.00160 0.82490 -0.01300
C 	C 	0.43081 0.95521 0.81725 0.14800
O 	O 	0.41537 0.94592 0.73323 -0.19200
C 	C 	0.41600 0.91988 0.90883 -0.07000
C 	C 	0.37842 0.89773 0.91476 0.06000
N 	N 	0.36486 0.86900 1.00180 -0.12400
C 	C 	0.38681 0.85967 0.08458 0.11000
C 	C 	0.42496 0.87827 0.08180 -0.17000
C 	C 	0.43927 0.90775 0.99177 0.05200
C 	C 	0.49058 0.00304 0.74309 -0.03000
C 	C 	0.52240 0.04540 0.75086 0.00500
H 	H 	0.50419 0.11979 -0.00949 0.04900
H 	H 	0.44854 0.04600 -0.02365 0.04900
H 	H 	0.35962 0.90458 0.85149 0.04400
H 	H 	0.37395 0.83962 0.15261 -0.14800
H 	H 	0.46869 0.92208 0.98673 0.03600
H 	H 	0.48701 -0.02939 0.67375 0.05900
H 	H 	0.54253 0.04514 0.68670 0.05200
C 	C 	0.03005 0.34294 0.43756 -0.07100
C 	C 	0.00209 0.38487 0.41278 0.00700
C 	C 	0.97876 0.41125 0.49118 -0.03800
C 	C 	0.98280 0.39623 0.59634 -0.00900
C 	C 	0.96021 0.42835 0.68138 0.14200
O 	O 	0.96286 0.41307 0.77160 -0.19400
C 	C 	0.93530 0.48049 0.65914 -0.05900
C 	C 	0.89918 0.46470 0.62338 0.04600
N 	N 	0.87777 0.51254 0.59201 -0.11800
C 	C 	0.89019 0.57647 0.59549 0.06700
C 	C 	0.92577 0.59521 0.63385 -0.11700
C 	C 	0.94846 0.54618 0.66530 0.02700
C 	C 	0.00965 0.35182 0.62003 -0.03500
C 	C 	0.03304 0.32556 0.54149 0.00500
H 	H 	-0.00130 0.39853 0.33304 0.05000
H 	H 	0.95805 0.44433 0.46907 0.05100
H 	H 	0.88838 0.41428 0.61828 0.03500
H 	H 	0.87226 0.61257 0.56799 0.02500
H 	H 	0.97646 0.55868 0.69284 0.04300
H 	H 	1.01326 0.33848 0.69977 0.05900
H 	H 	0.05403 0.29277 0.56261 0.04600
