data_crystal

_cell_length_a 23.90620
_cell_length_b 24.47430
_cell_length_c 24.49400
_cell_angle_alpha 130.58660
_cell_angle_beta  60.48590
_cell_angle_gamma 143.91510

_symmetry_space_group_name_	'P 1'
_symmetry_space_group_name_H-M	'P 1'

loop_
_symmetry_equiv_pos_as_xyz
  x,y,z

loop_
_atom_site_label
_atom_site_type_symbol
_atom_site_fract_x
_atom_site_fract_y
_atom_site_fract_z
_atom_site_charge
Mn	Mn	0.22913 0.51093 0.17187 1.20400
Mn	Mn	1.06361 0.28790 0.18709 1.28500
Mn	Mn	0.86089 0.65136 0.86756 1.21300
Mn	Mn	0.00632 0.86858 0.85369 1.26400
Mn	Mn	0.02349 0.07078 0.01644 1.25300
C 	C 	0.03701 0.41982 0.17062 0.05700
N 	N 	0.08686 0.41119 0.16940 -0.26300
N 	N 	1.03699 0.35563 0.20084 -0.19100
N 	N 	0.96519 0.34152 0.23080 -0.06200
N 	N 	0.96472 0.38223 0.21338 -0.07600
N 	N 	0.86352 0.12355 0.14660 -0.12800
N 	N 	0.93508 0.13905 0.13270 -0.21200
N 	N 	0.92130 0.06512 1.06644 -0.17700
N 	N 	0.84257 1.00366 1.03442 -0.09400
C 	C 	0.80598 1.03939 1.08585 0.14400
C 	C 	0.08856 0.15315 0.20016 0.09100
N 	N 	0.09095 0.22262 0.17501 -0.20700
N 	N 	0.09813 0.23036 0.23029 -0.11000
N 	N 	0.10858 0.21396 0.03083 -0.25600
N 	N 	0.12612 0.29224 0.09416 -0.20000
N 	N 	0.19256 0.37947 0.09004 -0.21800
N 	N 	0.21726 0.36079 0.02380 -0.14000
N 	N 	0.07378 0.14224 0.11414 -0.20100
N 	N 	0.07125 1.09620 0.12802 -0.09600
C 	C 	0.16543 0.25744 0.98690 0.16100
N 	N 	1.00017 0.74268 0.85116 -0.25600
N 	N 	0.05487 0.82345 0.84330 -0.21100
N 	N 	0.13403 0.85247 0.81493 -0.06100
N 	N 	0.13415 0.79340 0.80664 -0.10900
N 	N 	0.20848 1.05211 0.89591 -0.09200
N 	N 	0.12873 1.02179 0.90577 -0.20900
N 	N 	0.13270 1.08855 -0.02890 -0.20100
N 	N 	0.21509 0.16351 0.00623 -0.10100
N 	N 	0.94015 0.00674 0.90127 -0.10200
N 	N 	0.97032 0.99165 0.91814 -0.17900
N 	N 	0.95716 0.91192 0.86135 -0.18900
N 	N 	0.92070 0.87458 0.80544 -0.09700
N 	N 	0.93907 0.92535 0.99951 -0.21300
N 	N 	0.95496 0.86910 0.94885 -0.18400
N 	N 	0.89691 0.78413 0.95325 -0.20700
N 	N 	0.83888 0.78059 1.00448 -0.11100
Cl	Cl	0.20850 0.45938 0.23944 -0.77600
Cl	Cl	0.86566 0.69208 0.80215 -0.75600
C 	C 	1.05054 0.72562 0.82953 0.14900
C 	C 	0.26204 0.14046 -0.04194 0.09200
C 	C 	0.90942 0.93306 0.83096 0.14800
C 	C 	0.86215 0.86646 0.03164 0.11500
C 	C 	0.78064 0.83986 0.03669 -0.09900
C 	C 	0.70603 0.79321 1.02095 0.04800
C 	C 	0.61783 0.71636 0.98158 -0.01400
C 	C 	0.55961 0.59828 0.93715 -0.01800
C 	C 	0.56302 0.59389 0.87026 -0.04100
C 	C 	0.62162 0.71227 0.91464 -0.01700
C 	C 	0.52844 0.67995 0.93404 -0.04900
C 	C 	0.52608 0.68557 1.00216 -0.00500
C 	C 	0.46680 0.56594 0.95677 -0.05400
C 	C 	0.47105 0.56229 0.88996 0.02700
C 	C 	0.39353 0.46964 0.83323 -0.02300
C 	C 	0.33360 0.38942 0.78365 -0.01300
C 	C 	0.26279 0.28705 0.72217 0.02800
O 	O 	0.23687 0.20381 0.71298 -0.21900
C 	C 	0.19800 0.18655 0.77244 0.16200
C 	C 	0.12853 0.18263 0.81097 -0.12300
C 	C 	0.10879 0.19186 0.87869 0.03200
C 	C 	0.15579 0.20202 0.90835 -0.09500
C 	C 	0.21877 0.19643 0.86738 0.04200
C 	C 	0.23833 0.18666 0.79899 -0.12700
H 	H 	0.57264 0.56481 0.93869 0.02300
H 	H 	0.57857 0.55612 0.81583 0.04300
H 	H 	0.68613 0.77184 0.89656 0.04200
H 	H 	0.51479 0.71235 0.93163 0.04000
H 	H 	0.51150 0.72390 0.05691 -0.00600
H 	H 	0.40221 0.50421 0.97312 0.03400
H 	H 	0.29602 0.29531 0.67324 0.02900
H 	H 	0.20002 0.26784 0.72831 0.02000
H 	H 	0.09463 0.18034 0.79137 0.05700
H 	H 	0.06250 0.19997 0.91054 0.01800
H 	H 	0.25944 0.20972 -0.10943 0.00300
H 	H 	0.29230 0.19017 0.77009 0.06400
C 	C 	1.01758 0.64172 0.82559 -0.12000
C 	C 	0.99355 0.57366 0.82272 0.01900
C 	C 	0.96931 0.49499 0.82051 -0.02300
C 	C 	1.04451 0.50456 0.81295 0.01700
C 	C 	0.97521 0.38393 0.75716 -0.05100
C 	C 	0.90022 0.37553 0.76475 -0.02100
C 	C 	0.85793 0.35049 0.82693 -0.05400
C 	C 	0.92742 0.47115 0.88249 0.00300
C 	C 	1.00220 0.47959 0.87486 -0.05400
C 	C 	0.93321 0.36011 0.81918 0.03400
C 	C 	0.91666 0.29093 0.82334 -0.02200
C 	C 	0.90564 0.24017 0.83271 -0.00500
C 	C 	0.89381 0.18637 0.85215 0.02900
O 	O 	0.84683 0.19017 0.91737 -0.21800
C 	C 	0.90167 0.25150 0.97687 0.17000
C 	C 	0.88571 0.19894 0.99805 -0.09300
C 	C 	0.93385 0.25653 0.06000 0.01400
C 	C 	0.00147 0.36841 0.10044 -0.06900
C 	C 	0.01856 0.42177 0.07893 -0.02700
C 	C 	0.96861 0.36304 0.01677 -0.10600
H 	H 	0.12159 0.56881 0.80730 0.00700
H 	H 	0.99508 0.34780 0.70586 0.04500
H 	H 	0.85796 0.33351 0.71974 0.02300
H 	H 	0.78103 0.28624 0.83260 0.03800
H 	H 	0.90814 0.50799 -0.06596 0.00100
H 	H 	1.04361 0.52115 0.92015 0.05100
H 	H 	0.96537 0.22641 0.85734 0.02800
H 	H 	0.84874 0.10143 0.80928 0.02900
H 	H 	0.83704 0.11382 0.96573 0.06700
H 	H 	0.92161 0.21605 0.07598 0.03500
H 	H 	0.06761 0.50705 0.11076 0.00800
H 	H 	0.98094 0.40356 0.00013 0.05700
C 	C 	0.33412 0.17018 -0.02231 -0.03200
C 	C 	0.38415 0.17686 -0.01185 -0.04200
C 	C 	0.43361 0.16650 0.99342 0.05300
C 	C 	0.44834 0.18545 0.06067 -0.06500
C 	C 	0.54995 0.23728 0.03871 -0.05700
C 	C 	0.53407 0.21827 0.97131 -0.02600
C 	C 	0.49282 0.10760 0.92688 -0.03500
C 	C 	0.39196 0.05616 0.94898 -0.05300
C 	C 	0.40745 0.07496 1.01603 -0.01400
C 	C 	0.50799 0.12673 0.99395 0.03300
C 	C 	0.54547 0.09878 0.99134 -0.02200
C 	C 	0.57388 0.07259 0.98763 0.00200
C 	C 	0.60885 0.03982 0.98075 0.02400
O 	O 	0.58625 0.03035 1.04204 -0.21100
C 	C 	0.62883 0.01741 1.05018 0.15500
C 	C 	0.64856 -0.03884 0.99153 -0.11200
C 	C 	0.69918 -0.04033 1.00312 0.00200
C 	C 	0.73235 1.01579 1.07308 -0.04400
C 	C 	0.70665 1.06544 1.13154 0.02200
C 	C 	0.65520 0.06573 1.12010 -0.11300
H 	H 	0.42970 0.21793 0.11559 0.03900
H 	H 	0.61555 0.31149 0.07566 0.03600
H 	H 	0.58547 0.27745 0.95296 0.02900
H 	H 	0.51059 0.07445 0.87179 0.03300
H 	H 	0.32641 0.98177 0.91214 0.05300
H 	H 	0.35555 0.01510 1.03371 0.03200
H 	H 	0.68762 0.10234 0.97746 0.04600
H 	H 	0.57479 -0.03780 0.93016 0.02700
H 	H 	0.62726 -0.07932 0.93689 0.05700
H 	H 	0.71948 -0.07728 0.95700 0.02900
H 	H 	0.73275 1.11114 1.18590 0.03800
H 	H 	0.64023 0.10889 1.16571 0.07100
C 	C 	0.89656 -0.06206 0.78328 -0.05200
C 	C 	0.89295 -0.05780 0.73891 0.00500
C 	C 	0.89594 -0.05155 0.68169 0.02800
C 	C 	-0.05866 -0.07355 0.61054 -0.05900
C 	C 	-0.00682 0.02769 0.61734 -0.06400
C 	C 	0.94786 0.04966 0.68926 -0.01300
C 	C 	0.86104 -0.01847 0.64765 -0.03900
C 	C 	0.80911 -0.11995 0.64079 -0.05000
C 	C 	0.85462 -0.14185 0.56875 -0.01700
C 	C 	0.90630 -0.04071 0.57648 0.03500
C 	C 	0.91265 -0.03225 0.51920 -0.01700
C 	C 	0.91739 -0.02189 0.47480 -0.01200
C 	C 	0.92062 -0.00513 0.42538 0.05800
O 	O 	0.98934 0.00657 0.37329 -0.21300
C 	C 	1.00891 0.03744 0.32834 0.15200
C 	C 	0.96560 0.05845 0.33345 -0.10800
C 	C 	0.99346 0.09686 0.29192 0.00600
C 	C 	1.06213 0.11168 0.24213 -0.02600
C 	C 	1.10186 0.08549 0.23329 0.02100
C 	C 	1.07609 0.04978 0.27676 -0.10700
H 	H 	-0.02606 -0.09666 0.59643 0.03500
H 	H 	0.06866 0.08802 0.60684 0.04000
H 	H 	0.98752 0.12916 0.73840 0.03400
H 	H 	0.82794 0.00451 0.66275 0.03600
H 	H 	0.73370 0.82039 0.65187 0.04700
H 	H 	0.81674 -0.22000 0.51848 0.03100
H 	H 	-0.05978 0.06866 0.45933 -0.00200
H 	H 	0.84880 -0.07421 0.39756 0.01700
H 	H 	0.91022 0.04565 0.36924 0.05500
H 	H 	0.95910 0.11209 0.29678 0.02600
H 	H 	0.15281 1.09287 0.19327 0.01800
H 	H 	1.10892 0.03204 0.27051 0.06800
