data_crystal

_cell_length_a 15.43810
_cell_length_b 23.13140
_cell_length_c 18.45700
_cell_angle_alpha 109.37190
_cell_angle_beta  61.18290
_cell_angle_gamma 129.12110

_symmetry_space_group_name_	'P 1'
_symmetry_space_group_name_H-M	'P 1'

loop_
_symmetry_equiv_pos_as_xyz
  x,y,z

loop_
_atom_site_label
_atom_site_type_symbol
_atom_site_fract_x
_atom_site_fract_y
_atom_site_fract_z
_atom_site_charge
Mn	Mn	-0.02740 0.26937 0.24855 1.21400
Mn	Mn	0.82907 0.08156 0.20003 1.27900
Mn	Mn	1.07914 0.79520 0.81635 1.21700
Mn	Mn	0.23291 0.97818 0.87835 1.27100
Mn	Mn	0.03885 0.03485 0.04068 1.24900
C 	C 	-0.17186 0.24623 0.16340 0.07500
N 	N 	-0.15414 0.21712 0.20272 -0.26400
N 	N 	0.78763 0.14481 0.18465 -0.18100
N 	N 	0.72935 0.12847 0.13918 -0.05500
N 	N 	0.75399 0.19078 0.12398 -0.06900
N 	N 	0.73252 0.00496 0.06631 -0.12700
N 	N 	0.81145 0.02345 0.09448 -0.21600
N 	N 	0.88875 0.00828 1.03741 -0.20200
N 	N 	0.86215 0.97890 0.97046 -0.08400
C 	C 	0.76399 0.97601 0.98941 0.14800
C 	C 	-0.10701 -0.02981 0.27631 0.06000
N 	N 	-0.12575 0.02324 0.21677 -0.20400
N 	N 	-0.16503 0.00012 0.28950 -0.08700
N 	N 	0.09146 0.14577 0.08121 -0.22000
N 	N 	0.00482 0.15464 0.13660 -0.20200
N 	N 	0.04605 0.22444 0.14839 -0.21400
N 	N 	0.15683 0.26161 0.09523 -0.11600
N 	N 	-0.04666 0.00850 0.16108 -0.21800
N 	N 	-0.02955 0.97698 0.19654 -0.06000
C 	C 	0.19035 0.21588 1.04605 0.10000
N 	N 	1.17630 0.83348 0.88572 -0.25400
N 	N 	0.25700 0.90640 0.89291 -0.20200
N 	N 	0.30662 0.91852 0.94239 -0.04600
N 	N 	0.26106 0.85461 0.96766 -0.08800
N 	N 	0.36403 1.07272 0.97952 -0.08700
N 	N 	0.25297 1.03139 0.98390 -0.20100
N 	N 	0.19520 1.06215 0.03650 -0.17800
N 	N 	0.27391 0.12865 0.06035 -0.11600
N 	N 	1.11307 0.10158 0.89859 -0.13300
N 	N 	1.12453 1.06122 0.92363 -0.17800
N 	N 	1.20170 1.04693 0.86345 -0.17900
N 	N 	1.24508 1.07929 0.79459 -0.08800
N 	N 	0.97821 0.92388 1.00053 -0.20000
N 	N 	1.05601 0.90899 0.93980 -0.19300
N 	N 	0.99950 0.84368 0.90318 -0.21100
N 	N 	0.88516 0.81508 0.93271 -0.10800
Cl	Cl	-0.13380 0.15973 0.31089 -0.77500
Cl	Cl	1.20765 0.90946 0.76031 -0.74200
C 	C 	1.17533 0.80094 0.93509 0.11700
C 	C 	0.37846 0.13433 0.02544 0.08000
C 	C 	1.18758 1.11336 0.81943 0.20100
C 	C 	0.86881 0.86266 -0.00604 0.10700
C 	C 	0.73944 0.83037 0.05204 -0.01800
C 	C 	0.70184 0.84889 0.13677 -0.00400
C 	C 	0.59730 0.79285 0.19384 -0.05800
C 	C 	0.55527 0.81369 0.28336 0.27200
O 	O 	0.48602 0.76596 0.33521 -0.23900
O 	O 	0.59444 0.88792 0.30887 -0.28200
C 	C 	0.54592 0.71700 0.16558 -0.00900
C 	C 	0.58223 0.69924 0.08070 -0.00700
C 	C 	0.58508 0.63183 0.04605 0.05100
C 	C 	0.69293 0.64093 -0.01415 -0.08800
C 	C 	0.70155 0.58088 -0.04663 0.04900
N 	N 	0.60726 0.51265 -0.01655 -0.11200
C 	C 	0.50170 0.50037 0.04339 0.06500
C 	C 	0.41857 0.42830 0.08100 0.05000
C 	C 	0.35727 0.36294 0.03691 -0.06800
C 	C 	0.29929 0.29084 0.06838 0.02500
C 	C 	0.34136 0.29458 0.12484 -0.08400
C 	C 	0.38157 0.35858 0.17428 0.03800
N 	N 	0.42123 0.42339 0.15099 -0.11900
C 	C 	0.48818 0.55995 0.07654 -0.07900
C 	C 	0.65284 0.75835 0.02835 -0.02800
H 	H 	0.75368 0.90415 0.15912 0.04600
H 	H 	0.56643 -0.10354 0.37154 0.12700
H 	H 	0.48583 0.67386 0.20945 0.05100
H 	H 	0.77476 0.69415 -0.03398 0.03400
H 	H 	0.78571 0.58966 -0.09296 -0.00900
H 	H 	0.34887 0.36543 -0.01692 0.05500
H 	H 	0.32650 0.24678 1.14211 0.06900
H 	H 	0.38475 0.35766 0.23018 0.02000
H 	H 	0.40552 0.55073 0.12694 0.04900
H 	H 	0.67045 0.74413 -0.03728 0.03500
C 	C 	1.06706 0.73546 0.98357 -0.05600
C 	C 	0.96226 0.73358 1.02760 0.02200
C 	C 	-0.13420 0.68443 0.09240 -0.09800
C 	C 	-0.22780 0.69676 0.15067 0.27200
O 	O 	-0.31455 0.65345 0.20616 -0.24700
O 	O 	0.79261 0.76469 0.14973 -0.29500
C 	C 	-0.12571 0.63512 0.11223 0.00200
C 	C 	-0.01858 0.63906 0.07250 -0.03000
C 	C 	0.00593 0.61154 0.11700 0.05100
C 	C 	0.06488 0.66222 0.17157 -0.08500
C 	C 	0.08964 0.63903 0.21548 0.04900
N 	N 	0.05930 0.56826 0.20315 -0.12400
C 	C 	0.00057 0.51706 0.15107 0.06000
C 	C 	0.00508 0.45131 0.12323 0.04700
C 	C 	-0.09426 0.37919 0.15240 -0.07100
C 	C 	-0.07686 0.32194 0.13132 -0.02300
C 	C 	0.03738 0.33794 0.08050 -0.09000
C 	C 	0.13307 0.40943 0.05284 0.03900
N 	N 	0.11509 0.46401 0.07461 -0.11600
C 	C 	-0.02933 0.53789 0.10782 -0.08800
C 	C 	0.07687 0.68814 1.00704 -0.02400
H 	H 	0.96025 0.77568 1.01683 0.03100
H 	H 	0.74257 0.77607 0.20457 0.17100
H 	H 	-0.19466 0.60153 0.16681 0.04400
H 	H 	0.09371 0.71982 0.17836 0.05900
H 	H 	0.13478 0.67809 0.25824 0.02300
H 	H 	-0.18059 0.36946 0.19199 0.03900
H 	H 	0.05333 0.29535 0.06281 0.04500
H 	H 	0.22216 0.42228 0.01591 0.02100
H 	H 	-0.07041 0.49982 0.06344 0.05800
H 	H 	0.16305 0.69519 0.97973 0.04000
C 	C 	0.49800 0.20384 -0.00523 -0.03400
C 	C 	0.51030 0.25707 -0.03691 -0.01700
C 	C 	0.62423 0.31102 0.90995 -0.05500
C 	C 	0.64304 0.37143 0.88019 0.29900
O 	O 	0.56380 0.36172 0.86739 -0.24500
O 	O 	0.75608 0.43864 -0.13811 -0.33100
C 	C 	0.71963 0.30282 0.87788 -0.00600
C 	C 	0.70330 0.24325 0.90017 -0.01000
C 	C 	0.77290 0.20986 0.84076 0.06500
C 	C 	0.82421 0.21879 0.75444 -0.07700
C 	C 	0.83871 0.16477 0.69888 0.02600
N 	N 	0.80074 1.10325 0.72812 -0.09300
C 	C 	0.76708 1.09692 0.80944 0.10900
C 	C 	0.73611 1.02949 0.83494 0.05600
C 	C 	0.73998 1.02835 0.90932 -0.05000
C 	C 	0.72713 0.96771 0.92470 0.01000
C 	C 	0.70592 0.90715 0.86720 -0.05400
C 	C 	0.70089 0.90927 0.79467 0.04600
N 	N 	0.71864 0.97026 0.77961 -0.10300
C 	C 	0.76048 0.15339 0.86628 -0.11600
C 	C 	0.59730 0.20132 0.96778 -0.01700
H 	H 	0.42931 0.25142 -0.02644 0.04000
H 	H 	0.76442 0.47391 0.83418 0.16400
H 	H 	0.80358 0.33912 0.82902 0.04800
H 	H 	0.84075 0.26228 0.72923 0.05200
H 	H 	0.87012 0.16897 0.63273 0.03500
H 	H 	0.76324 1.07650 0.95182 0.08100
H 	H 	0.70063 0.86099 0.87614 0.05000
H 	H 	0.69006 0.86422 0.74813 0.03100
H 	H 	0.72968 0.14853 0.93224 0.07100
H 	H 	0.58102 0.15601 0.98899 0.04400
C 	C 	0.20372 0.16296 0.77346 -0.07700
C 	C 	0.17228 0.21245 0.82644 0.01500
C 	C 	0.10123 0.22268 0.81381 -0.08000
C 	C 	0.02806 0.24738 0.88339 0.26900
O 	O 	0.02174 0.29357 0.87209 -0.22600
O 	O 	-0.04313 0.21418 0.96089 -0.28300
C 	C 	0.09460 0.20420 0.73602 -0.00600
C 	C 	0.14328 0.16521 0.67560 -0.01700
C 	C 	0.14566 0.15479 0.59152 0.04200
C 	C 	0.22310 0.21770 0.54262 -0.08400
C 	C 	0.21513 0.21021 0.46825 0.04800
N 	N 	0.13285 0.14327 0.44381 -0.12200
C 	C 	0.05811 0.07994 0.48760 0.06000
C 	C 	-0.03269 0.01110 0.45680 0.04700
C 	C 	-0.01115 0.00283 0.37166 -0.08700
C 	C 	0.89154 -0.04834 0.34573 0.05400
C 	C 	0.78003 -0.10050 0.40142 -0.07600
C 	C 	0.76371 -0.09421 0.48511 0.04600
N 	N 	0.85552 -0.03757 0.51119 -0.11100
C 	C 	0.06145 0.08556 0.56429 -0.08300
C 	C 	0.19457 0.14200 0.69527 -0.03300
H 	H 	0.18293 0.23070 0.88580 0.03200
H 	H 	-0.04473 0.17203 -0.02982 0.12300
H 	H 	0.04695 0.21731 0.72331 0.04200
H 	H 	0.28720 0.27183 0.56326 0.05300
H 	H 	0.27297 0.25727 0.42991 0.02000
H 	H 	0.07313 0.04471 0.32914 0.06300
H 	H 	0.70374 -0.14035 0.38205 0.05300
H 	H 	0.67482 -0.13068 0.52943 0.01600
H 	H 	-0.00087 0.03721 0.60230 0.05200
H 	H 	1.22012 0.10515 0.65240 0.05300
