data_crystal

_cell_length_a 27.56260
_cell_length_b 21.32740
_cell_length_c 22.56520
_cell_angle_alpha 89.60310
_cell_angle_beta  85.39790
_cell_angle_gamma 99.06300

_symmetry_space_group_name_	'P 1'
_symmetry_space_group_name_H-M	'P 1'

loop_
_symmetry_equiv_pos_as_xyz
  x,y,z

loop_
_atom_site_label
_atom_site_type_symbol
_atom_site_fract_x
_atom_site_fract_y
_atom_site_fract_z
_atom_site_charge
Nd	Nd	0.16500 0.74782 0.95682 2.31500
O 	O 	0.12841 0.66686 0.90223 -0.52800
Nd	Nd	0.18847 0.60686 0.87505 2.75000
O 	O 	0.15269 0.66355 0.80820 -0.33500
C 	C 	0.14676 0.62554 1.00940 0.27500
C 	C 	0.25836 0.71198 0.94023 0.39400
C 	C 	0.07447 0.77224 1.00226 0.44300
O 	O 	0.15914 0.67534 0.03320 -0.43400
O 	O 	0.13530 0.63712 0.95118 -0.49600
O 	O 	0.08396 0.75854 0.94925 -0.49500
O 	O 	0.11108 0.77511 1.03204 -0.51600
C 	C 	0.11750 0.53514 0.81164 0.37900
O 	O 	0.25028 0.56683 0.82178 -0.54300
C 	C 	0.25011 0.59711 0.77414 0.40100
O 	O 	0.21855 0.63403 0.77755 -0.43800
O 	O 	0.13937 0.58921 0.79509 -0.38300
O 	O 	0.13301 0.51612 0.85823 -0.47100
C 	C 	0.12819 0.69075 0.84423 0.17000
O 	O 	0.22814 0.70927 0.89489 -0.75300
O 	O 	0.24046 0.73337 0.98470 -0.54000
Nd	Nd	0.66476 0.80828 0.04363 2.36000
O 	O 	0.65962 0.91572 0.04778 -0.71200
Nd	Nd	0.58275 0.91257 0.09920 2.53300
O 	O 	0.60039 0.94621 0.00217 -0.53300
C 	C 	0.61736 0.78439 0.15443 0.17900
C 	C 	0.57489 0.79372 -0.00021 0.18900
C 	C 	0.75735 0.82492 0.07491 0.28400
O 	O 	0.66188 0.78630 0.14454 -0.39600
O 	O 	0.59448 0.80395 0.10474 -0.47300
O 	O 	0.72050 0.82565 0.11300 -0.41700
O 	O 	0.74669 0.81746 0.02125 -0.51700
C 	C 	0.62804 0.92197 0.20433 0.37500
O 	O 	0.51150 0.94610 0.13875 -0.52100
C 	C 	0.53098 0.00409 0.14075 0.39000
O 	O 	0.57477 0.01527 0.11736 -0.49000
O 	O 	0.64736 0.94772 0.15621 -0.46400
O 	O 	0.58613 0.89063 0.19897 -0.49400
C 	C 	0.64333 0.93809 -0.00390 0.39100
O 	O 	0.58136 0.80666 0.06135 -0.46700
O 	O 	0.61377 0.79510 -0.03079 -0.49700
Nd	Nd	0.89721 0.08640 0.71022 2.38700
O 	O 	0.86228 0.07620 0.62346 -0.51200
Nd	Nd	0.85604 0.17610 0.59036 2.36200
O 	O 	0.78882 0.09945 0.62336 -0.26400
C 	C 	0.95625 0.11671 0.60578 0.25800
C 	C 	0.91093 0.21988 0.70468 0.31400
C 	C 	0.93866 -0.00744 0.75841 0.38400
O 	O 	-0.02958 0.11481 0.65519 -0.45000
O 	O 	0.90485 0.09703 0.60607 -0.46200
O 	O 	0.92055 -0.00992 0.70893 -0.48600
O 	O 	0.93450 0.04382 0.78576 -0.52400
C 	C 	0.80805 0.11564 0.49686 0.38800
O 	O 	0.80887 0.25515 0.58016 -0.48200
C 	C 	0.76765 0.22070 0.59541 0.34300
O 	O 	0.77249 0.16530 0.61325 -0.38800
O 	O 	0.79114 0.11230 0.55004 -0.38800
O 	O 	0.84985 0.14953 0.49054 -0.47800
C 	C 	0.81214 0.05955 0.64084 0.12300
O 	O 	0.86713 0.18420 0.69295 -0.70900
O 	O 	0.93982 0.18712 0.72014 -0.51600
Nd	Nd	0.36441 0.24782 0.44397 2.21000
O 	O 	0.38617 0.33884 0.38435 -0.43900
Nd	Nd	0.31441 0.37940 0.37779 2.40600
O 	O 	0.35922 0.34619 0.29640 -0.30100
C 	C 	0.37140 0.36894 0.49283 0.23000
C 	C 	0.26192 0.25160 0.44258 0.31600
C 	C 	0.46432 0.25094 0.45758 0.36400
O 	O 	0.36457 0.31962 0.52113 -0.45800
O 	O 	0.37805 0.35799 0.43261 -0.48600
O 	O 	0.43111 0.23859 0.49912 -0.49100
O 	O 	0.44668 0.25955 0.40934 -0.47900
C 	C 	0.37554 0.49017 0.33193 0.43100
O 	O 	0.24988 0.40009 0.32637 -0.50500
C 	C 	0.26721 0.38373 0.27624 0.30600
O 	O 	0.30703 0.36106 0.27861 -0.37700
O 	O 	0.37221 0.43751 0.30818 -0.42200
O 	O 	0.34518 0.48801 0.37598 -0.49700
C 	C 	0.39014 0.32496 0.32327 0.15800
O 	O 	0.29437 0.26924 0.39415 -0.70200
O 	O 	0.28287 0.23561 0.48383 -0.53300
C 	C 	0.30836 0.69746 0.93597 -0.18000
C 	C 	0.34091 0.72197 0.88751 -0.01100
C 	C 	0.39174 0.72716 0.89107 0.13300
Cl	Cl	0.43180 0.75990 0.83007 -0.29600
C 	C 	0.40957 0.70681 0.94336 -0.02000
C 	C 	0.46198 0.71572 0.95204 0.11900
N 	N 	0.48650 0.66667 -0.04199 -0.06000
N 	N 	0.53035 0.69055 -0.02501 -0.07300
C 	C 	0.53155 0.75357 -0.01952 0.07200
N 	N 	0.48916 0.77089 -0.03371 -0.09900
N 	N 	0.47531 0.83133 -0.02946 -0.16200
C 	C 	0.37690 0.67547 0.98855 -0.09600
C 	C 	0.32634 0.67062 0.98520 0.21000
Cl	Cl	0.28671 0.63285 1.04449 -0.32400
H 	H 	0.32699 0.74141 0.84903 0.05700
H 	H 	0.44755 0.82989 0.00547 0.08400
H 	H 	0.46182 0.84157 -0.06996 0.12400
H 	H 	0.39087 0.65703 1.02754 0.09100
C 	C 	0.50799 0.05362 0.17264 -0.11200
C 	C 	0.46917 0.07894 0.14968 -0.02000
C 	C 	0.45245 0.13246 0.17541 0.15100
Cl	Cl	0.40807 0.16645 0.13978 -0.28700
C 	C 	0.47435 0.16064 0.22533 -0.02200
C 	C 	0.46307 0.22116 0.25061 0.14700
N 	N 	0.49847 0.26817 0.26574 -0.06900
N 	N 	0.47619 0.31232 0.29246 -0.05100
C 	C 	0.42742 0.29172 0.29349 0.08600
N 	N 	0.41801 0.23493 0.26741 -0.11200
N 	N 	0.37286 0.19346 0.27017 -0.13200
C 	C 	0.51205 0.13386 0.24893 -0.08300
C 	C 	0.52896 0.08123 0.22310 0.20400
Cl	Cl	0.57757 0.05218 0.25482 -0.29800
H 	H 	0.45376 0.05934 0.10982 0.07300
H 	H 	0.36011 0.18633 0.31503 0.01600
H 	H 	0.34782 0.21693 0.24993 0.11400
H 	H 	0.52931 0.15495 0.28710 0.09800
C 	C 	0.71860 0.23681 0.58323 -0.09200
C 	C 	0.67852 0.18665 0.58402 -0.03300
C 	C 	0.63485 0.19384 0.55881 0.15400
Cl	Cl	0.59053 0.12546 0.55330 -0.28200
C 	C 	0.62977 0.25267 0.53323 -0.02100
C 	C 	0.58847 0.25958 0.49648 0.15000
N 	N 	0.59582 0.28114 0.43969 -0.07100
N 	N 	0.55185 0.27974 0.41927 -0.04400
C 	C 	0.51780 0.25737 0.46367 0.02600
N 	N 	0.53979 0.24424 0.51268 -0.08600
N 	N 	0.51757 0.22486 0.56938 -0.13700
C 	C 	0.66847 0.30397 0.53559 -0.07300
C 	C 	0.71238 0.29677 0.56066 0.19200
Cl	Cl	0.75903 0.36359 0.56038 -0.28000
H 	H 	0.68239 0.13974 0.60002 0.08900
H 	H 	0.49719 0.25968 0.58485 0.11300
H 	H 	0.49285 0.18311 0.56455 0.11800
H 	H 	0.66526 0.34958 0.51605 0.09900
C 	C 	0.67326 0.94783 0.93856 -0.16600
C 	C 	0.69778 0.89918 0.91625 0.02400
C 	C 	0.72247 0.90398 0.85941 0.12900
Cl	Cl	0.74675 0.83679 0.83302 -0.29700
C 	C 	0.72586 -0.03973 0.82488 -0.02700
C 	C 	0.75610 -0.03117 0.76677 0.11800
N 	N 	0.79769 -0.05647 0.75586 -0.08100
N 	N 	0.81985 -0.03154 0.70490 -0.11300
C 	C 	0.79177 0.00868 0.68444 0.02400
N 	N 	0.75084 0.00863 0.72163 -0.11100
N 	N 	0.71221 1.04374 0.71567 -0.15300
C 	C 	0.70339 0.01040 0.84897 -0.09900
C 	C 	0.67605 0.00382 0.90433 0.20000
Cl	Cl	0.64764 0.06784 -0.06932 -0.28600
H 	H 	0.69636 0.85610 0.94213 -0.06400
H 	H 	0.67939 1.01444 0.73062 0.11200
H 	H 	0.70880 1.05020 0.67035 0.12700
H 	H 	0.70805 0.05570 0.82590 0.08200
C 	C 	0.77990 0.08314 0.44986 -0.11000
C 	C 	0.72892 0.06495 0.46322 -0.02000
C 	C 	0.69997 0.02877 0.42424 0.15000
Cl	Cl	0.63611 0.01008 0.44424 -0.25700
C 	C 	0.72184 1.00893 0.37061 -0.01900
C 	C 	0.69226 0.96501 0.33203 0.14700
N 	N 	0.66074 0.91344 0.35326 -0.05200
N 	N 	0.63486 0.89077 0.30892 -0.03900
C 	C 	0.65104 0.92836 0.26091 0.05700
N 	N 	0.68747 0.97483 0.27383 -0.08700
N 	N 	0.70746 0.02857 0.23844 -0.13400
C 	C 	0.77252 1.02880 0.35582 -0.07400
C 	C 	0.80168 0.06582 0.39496 0.19500
Cl	Cl	0.86546 1.08532 0.37534 -0.27600
H 	H 	0.71131 0.07805 0.50494 0.09100
H 	H 	0.74549 0.02926 0.23230 0.10900
H 	H 	0.70127 0.06871 0.26252 0.12100
H 	H 	0.79006 1.01310 0.31518 0.09200
C 	C 	0.28240 0.58656 0.72091 -0.11400
C 	C 	0.32419 0.55841 0.72943 -0.02100
C 	C 	0.35128 0.53609 0.68154 0.15500
Cl	Cl	0.40264 0.50005 0.69556 -0.28300
C 	C 	0.33691 0.54202 0.62378 -0.02100
C 	C 	0.35805 0.50744 0.57461 0.14400
N 	N 	0.37698 0.53390 0.52171 -0.06900
N 	N 	0.38644 0.48675 0.48670 -0.07100
C 	C 	0.37257 0.43217 0.51844 0.02000
N 	N 	0.35504 0.44399 0.57387 -0.09700
N 	N 	0.33040 0.40049 0.61752 -0.14000
C 	C 	0.29779 0.57471 0.61426 -0.07800
C 	C 	0.27021 0.59670 0.66242 0.20000
Cl	Cl	0.21880 0.63198 0.64744 -0.26700
H 	H 	0.33507 0.55195 0.77385 0.08800
H 	H 	0.30076 0.37332 0.59872 0.08300
H 	H 	0.35492 0.37039 0.62842 0.12200
H 	H 	0.28689 0.57985 0.56960 0.09600
C 	C 	0.14732 0.56456 0.04266 -0.08300
C 	C 	0.13712 0.56571 0.10481 -0.02000
C 	C 	0.15464 0.52389 0.14335 0.16300
Cl	Cl	0.15447 0.54587 0.21819 -0.27400
C 	C 	0.17792 0.47371 0.11994 -0.01400
C 	C 	0.20993 0.43757 0.15342 0.15000
N 	N 	0.25159 0.42128 0.12655 -0.06900
N 	N 	0.27494 0.39605 0.16738 -0.04400
C 	C 	0.24757 0.39654 0.21933 0.05300
N 	N 	0.20620 0.42184 0.21208 -0.08700
N 	N 	0.16434 0.41785 0.25250 -0.13200
C 	C 	0.18170 0.46749 0.05791 -0.06500
C 	C 	0.17047 0.51424 1.01982 0.21600
Cl	Cl	0.19935 0.51474 0.94834 -0.64000
H 	H 	0.12117 0.60506 0.12400 0.10100
H 	H 	0.15348 0.37009 0.26495 0.11400
H 	H 	0.17476 0.44244 0.29052 0.13600
H 	H 	0.20035 0.43053 0.03844 0.11200
C 	C 	-0.00805 0.13709 0.55467 -0.10600
C 	C 	-0.00126 0.20077 0.53536 -0.01700
C 	C 	0.04309 0.22875 0.50409 0.14000
Cl	Cl	0.05154 0.31078 0.48754 -0.28100
C 	C 	0.08150 0.19281 0.49209 -0.02100
C 	C 	0.13057 0.22212 0.46428 0.13600
N 	N 	0.13713 0.25256 0.41099 -0.06700
N 	N 	0.18537 0.26827 0.39766 -0.08300
C 	C 	0.20800 0.24770 0.44307 -0.00900
N 	N 	0.17465 0.21866 0.48555 -0.09300
N 	N 	0.18452 0.19183 0.53963 -0.14600
C 	C 	0.07314 0.12794 0.50755 -0.08300
C 	C 	0.02907 0.10028 0.53909 0.19800
Cl	Cl	0.02316 0.02047 0.56317 -0.27400
H 	H 	0.97145 0.23031 0.54920 -0.01700
H 	H 	0.15152 0.17859 0.56594 0.09900
H 	H 	0.20512 0.22768 0.56268 0.09700
H 	H 	0.10194 0.09941 0.49765 0.09200
C 	C 	0.96471 0.94169 0.77884 -0.11000
C 	C 	0.98872 0.94912 0.83164 -0.02700
C 	C 	1.02120 0.90806 0.84582 0.14700
Cl	Cl	1.05213 0.92055 0.91111 -0.33300
C 	C 	0.02946 0.85860 0.80734 -0.02000
C 	C 	0.06999 0.82289 0.81425 0.14500
N 	N 	0.11771 0.84822 0.80261 -0.08200
N 	N 	0.14388 0.80239 0.81128 -0.10800
C 	C 	0.11174 0.74983 0.82806 0.05200
N 	N 	0.06483 0.76106 0.82960 -0.09400
N 	N 	0.02064 0.71860 0.84169 -0.13600
C 	C 	0.00266 0.84763 0.75754 -0.07600
C 	C 	-0.02984 0.88813 0.74308 0.20800
Cl	Cl	-0.05957 0.87106 0.67721 -0.24400
H 	H 	0.98429 0.98861 0.86048 0.08300
H 	H 	0.99936 0.73843 0.87486 0.12400
H 	H 	1.02870 0.67616 0.85895 0.13500
H 	H 	0.00905 0.80952 0.72773 0.10500
C 	C 	0.07596 0.50104 0.78226 -0.10800
C 	C 	0.08144 0.48895 0.72128 -0.01500
C 	C 	0.04277 0.45355 0.69355 0.14800
Cl	Cl	0.05300 0.43275 0.61876 -0.27200
C 	C 	-0.00259 0.43289 0.72637 0.00000
C 	C 	0.96091 0.38298 0.70427 0.13700
N 	N 	0.91260 0.38695 0.70299 -0.07300
N 	N 	0.88872 0.32811 0.69896 -0.07200
C 	C 	0.92271 0.28907 0.69939 -0.01800
N 	N 	0.96805 0.32242 0.70179 -0.09300
N 	N 	0.01229 0.29977 0.71046 -0.14000
C 	C 	0.99079 0.44953 0.78605 -0.09900
C 	C 	0.02995 0.48252 0.81437 0.21500
Cl	Cl	1.01988 0.50048 0.89003 -0.29500
H 	H 	0.11637 0.50472 0.69590 0.09000
H 	H 	0.00757 0.27535 0.75129 0.11300
H 	H 	0.01818 0.26772 0.67678 0.11200
H 	H 	0.95604 0.43327 0.81173 0.09900
C 	C 	1.02599 0.78369 1.02658 -0.15700
C 	C 	1.02220 0.83960 0.05766 0.01500
C 	C 	0.97608 0.85342 0.07882 0.14300
Cl	Cl	0.97287 0.92686 0.11278 -0.26900
C 	C 	0.93332 0.81031 0.06971 0.00600
C 	C 	0.88398 0.82348 0.08975 0.14600
N 	N 	0.86855 0.83332 0.14670 -0.05900
N 	N 	0.82081 0.83708 0.14790 -0.04800
C 	C 	0.80794 0.82965 0.09166 0.05700
N 	N 	0.84693 0.82116 0.05454 -0.09700
N 	N 	0.84961 0.81250 -0.00726 -0.13500
C 	C 	0.93733 0.75356 1.03998 -0.10400
C 	C 	0.98333 0.73995 1.01853 0.21900
Cl	Cl	0.98640 0.66597 0.98542 -0.30400
H 	H 	0.05501 0.87346 0.06391 0.08200
H 	H 	0.82523 0.77149 0.98414 0.09700
H 	H 	0.83801 0.85153 -0.02687 0.12000
H 	H 	0.90458 0.71948 1.03388 0.09400
C 	C 	0.41405 0.54470 0.31343 -0.12400
C 	C 	0.45687 0.53200 0.28064 -0.01500
C 	C 	0.49642 0.58029 0.26534 0.15300
Cl	Cl	0.55004 0.55992 0.22723 -0.28700
C 	C 	0.49351 0.64304 0.28214 -0.01800
C 	C 	0.53377 0.69503 0.26280 0.14800
N 	N 	0.56748 0.72347 0.29842 -0.06400
N 	N 	0.60191 0.76046 0.26378 -0.05100
C 	C 	0.58851 0.75440 0.20763 0.08600
N 	N 	0.54612 0.71345 0.20580 -0.10700
N 	N 	0.52421 0.68683 0.15544 -0.13600
C 	C 	0.45090 0.65629 0.31483 -0.07800
C 	C 	0.41133 0.60763 0.33091 0.20900
Cl	Cl	0.35928 0.62803 0.37224 -0.28300
H 	H 	0.46046 0.48376 0.26856 0.09400
H 	H 	0.51252 0.72292 0.13135 0.09100
H 	H 	0.55110 0.66871 0.12816 0.09900
H 	H 	0.44820 0.70471 0.32727 0.09700
