data_crystal

_cell_length_a 19.51920
_cell_length_b 20.37840
_cell_length_c 18.86350
_cell_angle_alpha 105.64950
_cell_angle_beta  99.48550
_cell_angle_gamma 105.43730

_symmetry_space_group_name_	'P 1'
_symmetry_space_group_name_H-M	'P 1'

loop_
_symmetry_equiv_pos_as_xyz
  x,y,z

loop_
_atom_site_label
_atom_site_type_symbol
_atom_site_fract_x
_atom_site_fract_y
_atom_site_fract_z
_atom_site_charge
Eu	Eu	0.41091 0.50066 0.80797 1.80800
O 	O 	0.27244 0.53455 0.81868 -0.33700
C 	C 	0.52268 0.46558 0.91225 0.27600
O 	O 	0.47504 0.63792 0.78247 -0.32500
O 	O 	0.37247 0.54474 0.71530 -0.42200
O 	O 	0.50626 0.50623 0.69759 -0.29100
O 	O 	0.56020 0.50661 0.88617 -0.31900
O 	O 	0.44799 0.45574 0.89994 -0.45200
O 	O 	0.29384 0.42803 0.78891 -0.44600
C 	C 	0.24979 0.47011 0.80851 0.31800
O 	O 	0.43619 0.41261 0.72301 -0.42100
C 	C 	0.49323 0.44353 0.69456 0.27100
C 	C 	0.42062 0.61332 0.72890 0.28000
Eu	Eu	0.01641 0.55240 0.27575 1.64700
O 	O 	0.91143 0.52236 0.36398 -0.32800
C 	C 	0.04620 0.71439 0.34203 0.28200
O 	O 	0.88965 0.38447 0.07740 -0.22200
O 	O 	0.95177 0.43631 0.20056 -0.38600
O 	O 	0.06312 0.52255 0.13457 -0.34200
O 	O 	-0.00919 0.71021 0.36511 -0.30200
O 	O 	0.08484 0.66734 0.34986 -0.43400
O 	O 	1.02606 0.51648 0.37986 -0.39200
C 	C 	0.95998 0.50821 0.40032 0.32500
O 	O 	0.12095 0.53226 0.25201 -0.42200
C 	C 	0.11563 0.51715 0.17486 0.27800
C 	C 	0.90094 0.43233 0.13753 0.29300
Eu	Eu	0.63174 0.04103 0.50712 1.70000
O 	O 	0.68661 0.16842 0.46638 -0.33100
C 	C 	0.47432 0.95510 0.41559 0.27300
O 	O 	0.73501 0.18058 0.73471 -0.23800
O 	O 	0.72126 0.11896 0.61205 -0.41900
O 	O 	0.55052 0.90137 0.52268 -0.31600
O 	O 	0.46621 1.00567 0.46144 -0.29600
O 	O 	0.54316 0.96140 0.40198 -0.39600
O 	O 	0.71197 0.06460 0.43513 -0.42500
C 	C 	0.72253 0.13489 0.43502 0.27600
O 	O 	0.67041 0.95050 0.52969 -0.39500
C 	C 	0.61308 0.90077 0.54170 0.31800
C 	C 	0.69295 0.14126 0.67374 0.29200
C 	C 	0.17432 0.43633 0.81629 -0.20800
C 	C 	0.17134 0.46072 0.89987 0.00600
C 	C 	0.20377 0.41877 0.94527 -0.13700
C 	C 	0.21812 0.45324 0.03044 0.07400
C 	C 	0.16220 0.46932 0.06260 -0.06100
C 	C 	0.17434 0.49813 0.14181 -0.02700
C 	C 	0.24260 0.50881 0.18916 -0.08500
C 	C 	0.29912 0.49150 0.15781 0.15400
O 	O 	0.36828 0.49856 0.20158 -0.20500
C 	C 	0.37786 0.51205 0.28129 -0.02500
C 	C 	0.28647 0.46537 0.07866 -0.13200
H 	H 	0.13425 0.45230 0.78140 0.07400
H 	H 	0.15895 0.37673 0.79439 0.07600
H 	H 	0.11271 0.45071 0.90062 0.02000
H 	H 	0.20043 0.51961 0.92680 0.03000
H 	H 	0.16433 0.36330 0.92854 0.05200
H 	H 	0.25549 0.41377 -0.06957 0.05800
H 	H 	0.10889 0.45861 1.02562 0.05100
H 	H 	0.25141 0.53074 0.25005 0.06900
H 	H 	0.43286 0.51035 0.30535 0.04400
H 	H 	0.33561 0.46999 0.29269 0.03700
H 	H 	0.37594 0.56645 0.30985 0.04600
H 	H 	0.32968 0.45202 0.05463 0.06900
C 	C 	0.94788 0.48274 0.46651 -0.20200
C 	C 	0.93690 0.40174 0.44719 0.00700
C 	C 	0.86473 0.35590 0.38678 -0.13100
C 	C 	0.84819 0.27708 0.37780 0.08100
C 	C 	0.79513 0.24344 0.40995 -0.06700
C 	C 	0.77842 0.16977 0.40072 -0.02100
C 	C 	0.81529 0.12969 0.35850 -0.08800
C 	C 	0.86911 0.16298 0.32593 0.15700
O 	O 	0.90717 0.12617 0.28155 -0.19800
C 	C 	0.89484 0.05175 0.27291 -0.02300
C 	C 	0.88496 0.23662 0.33625 -0.12900
H 	H 	0.99591 0.51382 0.51649 0.09200
H 	H 	0.89861 0.49314 0.48357 0.08800
H 	H 	0.93552 0.38835 0.50036 0.03700
H 	H 	0.98364 0.38951 0.42626 0.04300
H 	H 	0.81876 0.37425 0.40280 0.06400
H 	H 	0.86770 0.36325 0.33094 0.06800
H 	H 	0.76724 0.27487 0.44261 0.06400
H 	H 	0.80118 0.07277 0.35065 0.06400
H 	H 	0.92958 0.03180 0.23718 0.04500
H 	H 	0.83652 0.01921 0.24344 0.03300
H 	H 	0.91003 0.04469 0.32913 0.04000
H 	H 	0.92597 0.26239 0.31120 0.08400
C 	C 	0.86467 0.48940 0.14197 -0.19200
C 	C 	0.78026 0.45792 0.12227 0.00800
C 	C 	0.74568 0.41956 0.03653 -0.12600
C 	C 	0.66368 0.40479 1.01767 0.07400
C 	C 	0.63228 0.44059 0.97459 -0.06600
C 	C 	0.55605 0.42774 0.95759 -0.02500
C 	C 	0.51139 0.37858 0.98443 -0.08900
C 	C 	0.54229 0.34193 1.02775 0.15300
O 	O 	0.50081 0.29177 1.05638 -0.20700
C 	C 	0.42282 0.27585 1.03975 -0.02700
C 	C 	0.61831 0.35551 1.04365 -0.13500
H 	H 	0.88378 0.52803 0.20104 -0.00600
H 	H 	0.88131 0.52123 0.10445 0.06500
H 	H 	0.75911 0.50343 0.14214 0.03100
H 	H 	0.76410 0.42029 0.15425 0.03100
H 	H 	0.77149 0.45380 1.00471 0.06200
H 	H 	0.75608 0.36745 0.01780 0.07900
H 	H 	0.66724 0.47877 0.95457 0.06000
H 	H 	0.45295 0.36905 0.97123 0.06300
H 	H 	0.39944 0.23624 1.06701 0.03600
H 	H 	0.39807 0.25130 0.97746 0.03200
H 	H 	0.40862 0.32514 0.06324 0.04100
H 	H 	0.64190 0.32716 0.07649 0.07900
C 	C 	0.07197 0.77097 0.30625 -0.20700
C 	C 	0.14957 0.77999 0.29440 0.01800
C 	C 	0.20939 0.80903 0.36979 -0.13900
C 	C 	0.28480 0.81467 0.35674 0.08300
C 	C 	0.34176 0.88100 0.38704 -0.07000
C 	C 	0.41285 0.88637 0.37805 -0.01000
C 	C 	0.42609 0.82451 0.33659 -0.08600
C 	C 	0.36906 0.75725 0.30509 0.15500
O 	O 	0.37800 0.69291 0.26280 -0.20200
C 	C 	0.44951 0.69510 0.25271 -0.02800
C 	C 	0.29931 0.75312 0.31675 -0.13000
H 	H 	0.03273 0.75529 0.25029 0.05100
H 	H 	0.06929 0.82302 0.34145 0.08100
H 	H 	0.16151 0.81904 0.26290 0.02400
H 	H 	0.15035 0.72725 0.25819 0.01400
H 	H 	0.20814 0.86248 0.40319 0.06400
H 	H 	0.19843 0.77356 0.40480 0.08100
H 	H 	0.33103 0.92826 0.41901 0.06500
H 	H 	0.48080 0.82883 0.32969 0.07200
H 	H 	0.44657 0.64069 0.21789 0.05200
H 	H 	0.48932 0.71033 0.30868 0.04200
H 	H 	0.46828 0.73291 0.22168 0.04300
H 	H 	0.25654 0.70103 0.29475 0.07600
C 	C 	0.62893 0.84793 0.57892 -0.20700
C 	C 	0.56003 0.78840 0.57700 0.01600
C 	C 	0.51577 0.81635 0.63134 -0.13800
C 	C 	0.45294 0.75467 0.63148 0.08300
C 	C 	0.46507 0.71372 0.67822 -0.06700
C 	C 	0.40751 0.65536 0.67834 -0.01900
C 	C 	0.33746 0.63759 0.63023 -0.08700
C 	C 	0.32414 0.67901 0.58336 0.15400
O 	O 	0.25502 0.66556 0.53495 -0.20300
C 	C 	0.19420 0.60707 0.53299 -0.02100
C 	C 	0.38249 0.73720 0.58461 -0.13100
H 	H 	0.66403 0.82186 0.54907 0.09000
H 	H 	0.66104 0.87780 0.63871 0.08800
H 	H 	0.57814 0.74615 0.59349 0.02800
H 	H 	0.52453 0.76282 0.51784 0.03600
H 	H 	0.55172 0.84464 0.69005 0.06600
H 	H 	0.49406 0.85611 0.61400 0.07800
H 	H 	0.51967 0.72732 0.71427 0.06400
H 	H 	0.29350 0.59247 0.63077 0.06600
H 	H 	0.14469 0.60498 0.49291 0.04100
H 	H 	0.18311 0.61536 0.59008 0.03300
H 	H 	0.20441 0.55498 0.51199 0.03500
H 	H 	0.37282 0.76870 0.54846 0.08000
C 	C 	0.61145 0.12200 0.66403 -0.22800
C 	C 	0.58172 0.17377 0.63227 0.01600
C 	C 	0.60512 0.24910 0.69238 -0.14000
C 	C 	0.59049 0.30491 0.65910 0.08000
C 	C 	0.54253 0.34130 0.68356 -0.06800
C 	C 	0.53896 0.40187 0.66323 -0.01900
C 	C 	0.58303 0.42532 0.61720 -0.08900
C 	C 	0.62926 0.38748 0.58962 0.15600
O 	O 	0.67478 0.40791 0.54315 -0.20200
C 	C 	0.67899 0.47352 0.52770 -0.02600
C 	C 	0.63191 0.32700 0.61044 -0.13100
H 	H 	0.58433 0.06581 0.62488 -0.02800
H 	H 	0.59826 0.12349 0.71940 0.07700
H 	H 	0.52051 0.15155 0.61399 0.00600
H 	H 	0.60148 0.17693 0.58091 -0.02200
H 	H 	0.57700 0.24535 0.73846 0.05900
H 	H 	0.66495 0.26814 0.71942 0.07800
H 	H 	0.51107 0.32476 0.72170 0.05400
H 	H 	0.58068 0.47310 0.60349 0.06900
H 	H 	0.71773 0.48193 0.49159 0.04700
H 	H 	0.69997 0.52020 0.58140 0.04600
H 	H 	0.62429 0.46989 0.49562 0.04000
H 	H 	0.66950 0.29950 0.59174 0.08200
