data_crystal

_cell_length_a 31.42360
_cell_length_b 29.95500
_cell_length_c 34.35740
_cell_angle_alpha 91.83910
_cell_angle_beta  92.49410
_cell_angle_gamma 121.24110

_symmetry_space_group_name_	'P 1'
_symmetry_space_group_name_H-M	'P 1'

loop_
_symmetry_equiv_pos_as_xyz
  x,y,z

loop_
_atom_site_label
_atom_site_type_symbol
_atom_site_fract_x
_atom_site_fract_y
_atom_site_fract_z
_atom_site_charge
Eu	Eu	0.53345 0.53293 0.83783 1.79700
O 	O 	0.46517 0.55914 0.87696 -0.33000
C 	C 	0.59601 0.52356 0.90424 0.34900
O 	O 	0.55703 0.58130 0.75600 -0.32200
O 	O 	0.50504 0.57578 0.80151 -0.45900
O 	O 	0.60018 0.51417 0.79287 -0.34300
O 	O 	0.61496 0.57062 0.90221 -0.36100
O 	O 	0.55962 0.48955 0.87578 -0.45000
O 	O 	0.45441 0.48143 0.85628 -0.43700
C 	C 	0.43593 0.51302 0.86717 0.29300
O 	O 	0.51675 0.47529 0.78586 -0.43400
C 	C 	0.56160 0.48256 0.77415 0.36100
C 	C 	0.52098 0.58392 0.76397 0.35400
Eu	Eu	0.02787 0.51387 0.17165 1.78900
O 	O 	0.94509 0.48264 0.22548 -0.31400
C 	C 	0.06137 0.55302 0.25853 0.27400
O 	O 	1.00269 0.57936 0.11690 -0.32600
O 	O 	0.98162 0.49469 0.11374 -0.43900
O 	O 	0.10227 0.55580 0.11398 -0.35600
O 	O 	0.04026 0.52767 0.28609 -0.24400
O 	O 	0.07422 0.52982 0.22919 -0.42800
O 	O 	0.96744 0.43440 0.19004 -0.41900
C 	C 	0.93191 0.44098 0.20781 0.28200
O 	O 	0.07038 0.48015 0.14372 -0.44400
C 	C 	0.10087 0.51469 0.11708 0.34900
C 	C 	0.98544 0.53833 0.09722 0.30000
Eu	Eu	0.49466 0.01120 0.47719 1.72800
O 	O 	0.54528 0.10877 0.43359 -0.34200
C 	C 	0.46624 0.93548 0.40642 0.34800
O 	O 	0.55361 0.08933 0.55540 -0.26600
O 	O 	0.48944 0.07337 0.51308 -0.44600
O 	O 	0.47055 0.90188 0.50890 -0.30200
O 	O 	0.44604 0.96007 0.39959 -0.35900
O 	O 	0.49805 0.94920 0.43980 -0.44100
O 	O 	0.57671 0.06880 0.46861 -0.43100
C 	C 	0.58227 0.10937 0.44663 0.35500
O 	O 	0.51865 0.98631 0.53217 -0.41400
C 	C 	0.50761 0.93486 0.52874 0.29000
C 	C 	0.51129 0.08102 0.55070 0.28700
C 	C 	0.38037 0.49132 0.86275 -0.12000
C 	C 	0.36637 0.50291 0.82196 0.05500
C 	C 	0.37760 0.55945 0.81861 -0.12500
C 	C 	0.33561 0.56752 0.83181 0.05200
C 	C 	0.28491 0.52569 0.81229 -0.12600
C 	C 	0.27394 0.47195 0.82360 0.05000
C 	C 	0.31249 0.46131 0.80696 -0.12700
C 	C 	0.27172 0.46769 0.86829 -0.12400
C 	C 	0.31631 0.51415 0.89361 0.06900
C 	C 	0.29837 0.51651 0.93498 -0.06400
N 	N 	0.28518 0.46919 0.95597 -0.13100
C 	C 	0.23163 0.43620 0.96192 -0.05200
C 	C 	0.21358 0.46285 0.98888 0.02000
C 	C 	0.17744 0.47382 0.97511 -0.05000
C 	C 	0.16017 0.49776 1.00013 -0.04300
C 	C 	0.17860 0.51087 0.03940 0.01300
C 	C 	0.16101 0.53783 0.06621 -0.02500
N 	N 	0.12849 0.50222 0.09456 -0.19700
C 	C 	0.21444 0.49959 0.05326 -0.04400
C 	C 	0.23172 0.47564 0.02823 -0.04800
C 	C 	0.33269 0.56787 0.87625 -0.12900
C 	C 	0.36232 0.50742 0.89903 -0.07100
H 	H 	0.36299 0.44811 0.86262 0.06000
H 	H 	0.39023 0.49817 0.80115 0.01400
H 	H 	0.38245 0.56849 0.78735 0.05000
H 	H 	0.41355 0.58822 0.83482 0.06800
H 	H 	0.34378 0.60630 0.82255 0.00700
H 	H 	0.25507 0.53236 0.82166 0.04700
H 	H 	0.28538 0.52781 0.78002 0.04800
H 	H 	0.23670 0.44191 0.80971 0.00600
H 	H 	0.30348 0.42126 0.81327 0.04900
H 	H 	0.30935 0.46162 0.77456 0.04800
H 	H 	0.26772 0.43001 0.87609 0.05500
H 	H 	0.23655 0.46558 0.87541 0.04900
H 	H 	0.26667 0.52317 0.93229 0.04100
H 	H 	0.32886 0.55146 0.95243 0.03700
H 	H 	0.30578 0.47998 0.98298 0.07000
H 	H 	0.22494 0.39982 0.97497 0.03600
H 	H 	0.20967 0.42365 0.93329 0.03500
H 	H 	0.16261 0.46392 0.94494 0.03200
H 	H 	0.13236 0.50596 0.98888 0.03200
H 	H 	0.19384 0.57238 0.08200 0.03800
H 	H 	0.14030 0.55225 0.04885 0.04000
H 	H 	0.12763 0.46742 0.09902 0.09400
H 	H 	0.22921 0.50962 0.08343 0.03700
H 	H 	0.25908 0.46687 0.03959 0.03500
H 	H 	0.36914 0.59930 0.89040 0.05300
H 	H 	0.30549 0.57983 0.88292 0.04800
H 	H 	0.35436 0.47704 0.92007 0.04500
H 	H 	0.39355 0.54399 0.91413 0.05100
C 	C 	0.87708 0.39909 0.20194 -0.11700
C 	C 	0.85022 0.41813 0.17401 0.05400
C 	C 	0.83546 0.45498 0.19396 -0.12700
C 	C 	0.78449 0.42622 0.21212 0.05300
C 	C 	0.74384 0.38411 0.18337 -0.12700
C 	C 	0.75894 0.34476 0.17179 0.05000
C 	C 	0.80608 0.37221 0.14936 -0.12700
C 	C 	0.76519 0.31839 0.20784 -0.12400
C 	C 	0.79696 0.35626 0.24410 0.07100
C 	C 	0.78065 0.32449 0.28142 -0.06500
N 	N 	0.79026 0.28114 0.28016 -0.13000
C 	C 	0.74464 0.22889 0.27911 -0.05200
C 	C 	0.71702 0.21947 0.31586 0.02000
C 	C 	0.66828 0.21010 0.31398 -0.04900
C 	C 	0.64255 0.20127 0.34779 -0.04400
C 	C 	0.66517 0.20181 0.38411 0.01800
C 	C 	0.63914 0.19671 0.42097 -0.02700
N 	N 	0.62917 0.14957 0.44020 -0.19400
C 	C 	0.71355 0.21020 0.38590 -0.04300
C 	C 	0.73923 0.21884 0.35204 -0.04700
C 	C 	0.78613 0.40125 0.24994 -0.13000
C 	C 	0.85453 0.38061 0.24178 -0.07300
H 	H 	0.87577 0.36501 0.18664 0.06200
H 	H 	0.87733 0.44154 0.15227 0.00700
H 	H 	0.83341 0.47978 0.17142 0.04800
H 	H 	0.86485 0.48230 0.21642 0.06500
H 	H 	0.77399 0.45558 0.21937 0.00800
H 	H 	0.70740 0.36388 0.19687 0.04800
H 	H 	0.73903 0.40236 0.15716 0.04800
H 	H 	0.72861 0.31372 0.15154 0.00700
H 	H 	0.81576 0.34342 0.13853 0.05100
H 	H 	0.79791 0.38767 0.12285 0.04900
H 	H 	0.78061 0.29374 0.19921 0.05700
H 	H 	0.72668 0.29106 0.21628 0.05000
H 	H 	0.74056 0.30995 0.28505 0.04200
H 	H 	0.80145 0.35132 0.30764 0.04000
H 	H 	0.81393 0.28571 0.30433 0.07300
H 	H 	0.75504 0.19886 0.27546 0.03800
H 	H 	0.72004 0.22334 0.25290 0.03600
H 	H 	0.65029 0.21019 0.28637 0.03300
H 	H 	0.60517 0.19462 0.34565 0.03700
H 	H 	0.66353 0.23150 0.44119 0.03600
H 	H 	0.60417 0.19675 0.41462 0.04700
H 	H 	0.65968 0.14803 0.45174 0.09400
H 	H 	0.73166 0.21075 0.41361 0.03700
H 	H 	0.77655 0.22539 0.35413 0.03700
H 	H 	0.81384 0.43217 0.27172 0.05400
H 	H 	0.74932 0.38596 0.26248 0.05000
H 	H 	0.86498 0.35198 0.25064 0.05100
H 	H 	0.87437 0.41345 0.26451 0.05600
C 	C 	0.96795 0.53415 0.05491 -0.12300
C 	C 	1.01282 0.56722 0.02991 0.05000
C 	C 	1.02846 0.62555 0.02818 -0.11200
C 	C 	0.99852 0.63590 -0.00356 0.05800
C 	C 	0.99540 0.60891 0.95694 -0.11400
C 	C 	0.97032 0.55012 0.96160 0.04500
C 	C 	1.00425 0.54044 -0.01117 -0.12400
C 	C 	0.91701 0.52706 0.97570 -0.12300
C 	C 	0.91202 0.55835 0.01100 0.06900
C 	C 	0.85693 0.54478 0.01007 -0.06500
N 	N 	0.82229 0.48842 0.01452 -0.13100
C 	C 	0.78547 0.46171 0.98113 -0.05200
C 	C 	0.74956 0.48081 0.97734 0.02100
C 	C 	0.74978 0.50861 0.94519 -0.04900
C 	C 	0.71707 0.52695 0.94186 -0.04000
C 	C 	0.68353 0.51761 0.97064 0.01700
C 	C 	0.64714 0.53571 0.96603 -0.02700
N 	N 	0.60925 0.50367 0.93454 -0.19600
C 	C 	0.68330 0.48984 1.00284 -0.04600
C 	C 	0.71591 0.47133 1.00610 -0.04700
C 	C 	0.94544 0.61850 0.00717 -0.13100
C 	C 	0.92492 0.54477 0.05175 -0.06900
H 	H 	0.95137 0.49223 0.04518 0.06400
H 	H 	1.04551 0.56717 0.04386 0.02300
H 	H 	0.06837 0.64809 0.02149 0.04000
H 	H 	1.02652 0.64160 0.05720 0.06400
H 	H 	0.01857 0.67881 -0.00689 -0.00200
H 	H 	0.97360 0.61648 0.93456 0.04900
H 	H 	0.03344 0.62487 0.94661 0.03800
H 	H 	0.96700 0.53066 0.93253 0.01100
H 	H 	0.98876 0.49772 -0.00988 0.05200
H 	H 	1.04100 0.55633 -0.02393 0.05200
H 	H 	0.90155 0.48558 -0.01750 0.05700
H 	H 	0.89366 0.52624 0.95007 0.05100
H 	H 	0.84770 0.55760 0.98256 0.04200
H 	H 	0.85307 0.56797 0.03418 0.03800
H 	H 	0.80386 0.48344 0.04017 0.06800
H 	H 	0.76403 0.41901 0.98515 0.03700
H 	H 	0.80509 0.46680 0.95393 0.03700
H 	H 	0.77546 0.51632 0.92271 0.03600
H 	H 	0.71784 0.54842 0.91689 0.04300
H 	H 	0.62818 0.53158 0.99344 0.03200
H 	H 	0.66775 0.57796 0.96025 0.04600
H 	H 	0.59029 0.46301 0.93582 0.09400
H 	H 	0.65753 0.48197 1.02526 0.03400
H 	H 	0.71475 0.44942 0.03090 0.03400
H 	H 	0.94732 0.64077 0.03441 0.05300
H 	H 	0.92846 0.63077 0.98396 0.05100
H 	H 	0.89196 0.50918 0.06171 0.04300
H 	H 	0.93193 0.57622 0.07389 0.04700
C 	C 	0.07544 0.60961 0.25786 -0.13900
C 	C 	0.05905 0.62107 0.21794 0.06200
C 	C 	0.09810 0.63719 0.18670 -0.15200
C 	C 	0.13818 0.69623 0.18840 0.06300
C 	C 	0.11506 0.73014 0.19202 -0.13000
C 	C 	0.08633 0.71703 0.22889 0.04900
C 	C 	0.04201 0.66062 0.22339 -0.12700
C 	C 	0.12101 0.72700 0.26596 -0.12300
C 	C 	0.15670 0.70503 0.26300 0.06700
C 	C 	0.20249 0.73774 0.29292 -0.06400
N 	N 	0.18750 0.73486 0.33335 -0.13100
C 	C 	0.21393 0.78588 0.35577 -0.05200
C 	C 	0.27012 0.81235 0.35584 0.02000
C 	C 	0.29788 0.86027 0.33864 -0.05000
C 	C 	0.34921 0.88305 0.33603 -0.04200
C 	C 	0.37365 0.85827 0.35049 0.02300
C 	C 	0.42811 0.88045 0.34441 -0.02400
N 	N 	0.45791 0.89463 0.38166 -0.19500
C 	C 	0.34627 0.81133 0.36899 -0.04500
C 	C 	0.29487 0.78864 0.37182 -0.04800
C 	C 	0.17795 0.71249 0.22197 -0.13300
C 	C 	0.13111 0.64584 0.27179 -0.06600
H 	H 	0.05400 0.61492 0.28066 0.06400
H 	H 	0.02490 0.58423 0.20614 -0.09900
H 	H 	0.07823 0.62737 0.15750 0.02800
H 	H 	0.11621 0.61375 0.18816 0.01500
H 	H 	0.15722 0.70446 0.16065 0.00800
H 	H 	0.14451 0.77240 0.19361 0.04900
H 	H 	0.08968 0.72265 0.16576 0.05100
H 	H 	0.07100 0.74303 0.23196 0.00700
H 	H 	0.01783 0.65149 0.24824 0.04800
H 	H 	0.01830 0.65701 0.19699 0.04800
H 	H 	0.09824 0.71170 0.29158 0.05600
H 	H 	0.14396 0.77023 0.27180 0.05100
H 	H 	0.22292 0.77900 0.28444 0.04200
H 	H 	0.22902 0.72372 0.29091 0.03900
H 	H 	0.19449 0.70885 0.34782 0.07000
H 	H 	0.20311 0.78012 0.38638 0.03600
H 	H 	0.20097 0.81114 0.34367 0.03700
H 	H 	0.27962 0.87942 0.32629 0.03400
H 	H 	0.36969 0.91949 0.32196 0.04100
H 	H 	0.43186 0.85046 0.32761 0.03100
H 	H 	0.44316 0.91542 0.32677 0.04100
H 	H 	0.47506 0.87376 0.38896 0.09100
H 	H 	0.36451 0.79172 0.38043 0.03800
H 	H 	0.27423 0.75201 0.38567 0.03500
H 	H 	0.19758 0.69081 0.21799 0.05100
H 	H 	0.20681 0.75435 0.21916 0.05000
H 	H 	0.13341 0.64202 0.30375 0.04700
H 	H 	0.15298 0.62954 0.25982 0.04400
C 	C 	0.54528 0.92267 0.54625 -0.11900
C 	C 	0.58643 0.93689 0.51725 0.05700
C 	C 	0.57305 0.89298 0.48523 -0.12700
C 	C 	0.58648 0.85222 0.49752 0.05200
C 	C 	0.63989 0.87898 0.51586 -0.12700
C 	C 	0.64457 0.91315 0.55183 0.05100
C 	C 	0.63798 0.95759 0.53870 -0.12900
C 	C 	0.60753 0.88054 0.58234 -0.12500
C 	C 	0.55241 0.84106 0.56602 0.07000
C 	C 	0.52767 0.79686 0.59513 -0.06500
N 	N 	0.52444 0.81735 0.63389 -0.13000
C 	C 	0.55720 0.81579 0.66514 -0.05300
C 	C 	0.54425 0.76080 0.67258 0.02100
C 	C 	0.57947 0.74591 0.66771 -0.04900
C 	C 	0.56782 0.69530 0.67511 -0.04300
C 	C 	0.52072 0.65879 0.68739 0.01700
C 	C 	0.50797 0.60439 0.69587 -0.02700
N 	N 	0.49546 0.59487 0.73649 -0.19600
C 	C 	0.48544 0.67362 0.69200 -0.04200
C 	C 	0.49735 0.72439 0.68517 -0.04800
C 	C 	0.55110 0.81403 0.52605 -0.13000
C 	C 	0.51997 0.86672 0.56110 -0.07200
H 	H 	0.56279 0.94997 0.57273 0.06400
H 	H 	0.59085 0.97094 0.50160 0.01900
H 	H 	0.59433 0.91181 0.45950 0.05500
H 	H 	0.53290 0.87310 0.47513 0.06700
H 	H 	0.58378 0.82880 0.47071 0.00900
H 	H 	0.64930 0.84938 0.52431 0.05000
H 	H 	0.66657 0.90327 0.49427 0.05100
H 	H 	0.68307 0.93107 0.56568 0.01000
H 	H 	0.64459 0.98491 0.56411 0.05700
H 	H 	0.66740 0.98095 0.51853 0.05500
H 	H 	0.60806 0.90707 0.60603 0.05800
H 	H 	0.62303 0.85826 0.59588 0.05100
H 	H 	0.54851 0.77614 0.59728 0.04200
H 	H 	0.48940 0.76678 0.58290 0.03700
H 	H 	0.48748 0.79650 0.64166 0.07000
H 	H 	0.55364 0.83396 0.69254 0.03900
H 	H 	0.59674 0.84040 0.65826 0.03800
H 	H 	0.61605 0.77350 0.65828 0.03500
H 	H 	0.59559 0.68471 0.67132 0.03800
H 	H 	0.47510 0.57570 0.67643 0.03300
H 	H 	0.53910 0.59841 0.68948 0.04800
H 	H 	0.46419 0.59535 0.74505 0.08900
H 	H 	0.44882 0.64604 0.70132 0.03300
H 	H 	0.46994 0.73525 0.68980 0.03500
H 	H 	0.51256 0.79123 0.51193 0.05100
H 	H 	0.56227 0.78479 0.53090 0.04900
H 	H 	0.50508 0.86895 0.58934 0.04700
H 	H 	0.48602 0.83964 0.54197 0.05200
C 	C 	0.48175 0.07672 0.58543 -0.12600
C 	C 	0.42844 0.02709 0.57984 0.06300
C 	C 	0.38953 0.03494 0.55638 -0.12900
C 	C 	0.36358 0.05672 0.58126 0.05500
C 	C 	0.34478 0.02676 0.61801 -0.14200
C 	C 	0.38929 0.03158 0.64203 0.05700
C 	C 	0.40978 0.00297 0.61910 -0.14500
C 	C 	0.42952 0.08959 0.65365 -0.12500
C 	C 	0.44421 0.12827 0.62003 0.06900
C 	C 	0.46612 0.18465 0.63902 -0.06400
N 	N 	0.51043 0.19999 0.66554 -0.13100
C 	C 	0.50703 0.21729 0.70522 -0.05200
C 	C 	0.50948 0.26910 0.70661 0.02100
C 	C 	0.46992 0.27289 0.72032 -0.04900
C 	C 	0.47307 0.32126 0.72313 -0.04300
C 	C 	0.51583 0.36658 0.71225 0.01700
C 	C 	0.52001 0.41908 0.71579 -0.02500
N 	N 	0.56341 0.45568 0.74191 -0.19400
C 	C 	0.55496 0.36252 0.69788 -0.04100
C 	C 	0.55216 0.31442 0.69571 -0.04700
C 	C 	0.39740 0.11523 0.59321 -0.13000
C 	C 	0.48448 0.12895 0.59425 -0.06800
H 	H 	0.50181 0.07161 0.61072 0.06300
H 	H 	0.43164 -0.00310 0.56262 -0.02000
H 	H 	0.36005 -0.00380 0.54273 0.03200
H 	H 	0.40671 0.06039 0.53193 0.05100
H 	H 	0.33078 0.05149 0.56330 0.00200
H 	H 	0.32602 0.04260 0.63555 0.04900
H 	H 	0.31660 0.98492 0.60976 0.05800
H 	H 	0.37551 0.01117 0.66931 0.00300
H 	H 	0.43957 0.00225 0.63724 0.05100
H 	H 	0.37950 0.96128 0.61320 0.05800
H 	H 	0.46342 0.09196 0.66735 0.05700
H 	H 	0.41412 0.10248 0.67706 0.05000
H 	H 	0.43671 0.18665 0.65459 0.04000
H 	H 	0.47660 0.21286 0.61568 0.03800
H 	H 	0.54251 0.22929 0.65362 0.07100
H 	H 	0.53864 0.22165 0.72424 0.03800
H 	H 	0.47245 0.18633 0.71745 0.03600
H 	H 	0.43683 0.23854 0.72928 0.03400
H 	H 	0.44222 0.32329 0.73396 0.03700
H 	H 	0.52506 0.43487 0.68641 0.03500
H 	H 	0.48516 0.41513 0.72593 0.04700
H 	H 	0.59842 0.46329 0.73463 0.09600
H 	H 	0.58807 0.39677 0.68886 0.03700
H 	H 	0.58351 0.31270 0.68570 0.03700
H 	H 	0.40827 0.13781 0.56660 0.04900
H 	H 	0.37448 0.12770 0.60866 0.04800
H 	H 	0.52248 0.15586 0.60824 0.04800
H 	H 	0.48431 0.14679 0.56640 0.04700
