data_crystal

_cell_length_a 30.67620
_cell_length_b 22.99470
_cell_length_c 26.94650
_cell_angle_alpha 88.99670
_cell_angle_beta  81.65940
_cell_angle_gamma 95.22520

_symmetry_space_group_name_	'P 1'
_symmetry_space_group_name_H-M	'P 1'

loop_
_symmetry_equiv_pos_as_xyz
  x,y,z

loop_
_atom_site_label
_atom_site_type_symbol
_atom_site_fract_x
_atom_site_fract_y
_atom_site_fract_z
_atom_site_charge
Mn	Mn	0.16100 0.41895 0.06369 1.23300
Mn	Mn	0.10534 0.43625 0.96315 1.28000
Mn	Mn	0.82708 0.55955 0.96058 1.23300
Mn	Mn	0.88546 0.52186 0.05429 1.27500
Mn	Mn	-0.00554 0.47750 0.00555 1.26300
C 	C 	0.18181 0.31660 1.00149 0.12500
N 	N 	0.15203 0.35467 1.01504 -0.24400
N 	N 	0.12825 0.35815 0.97794 -0.18700
N 	N 	0.14150 0.32113 0.94315 -0.05600
N 	N 	0.17474 0.29444 0.95687 -0.09100
N 	N 	0.05177 0.37444 0.89449 -0.11000
N 	N 	0.05008 0.40141 0.93753 -0.20200
N 	N 	0.01047 0.42050 0.94974 -0.19400
N 	N 	-0.01491 0.40511 0.91560 -0.08800
C 	C 	0.01090 0.37582 0.88166 0.14700
C 	C 	0.09650 0.60614 0.95528 0.14600
N 	N 	0.08548 0.51457 0.95185 -0.20000
N 	N 	0.11501 0.55881 0.93702 -0.09200
N 	N 	0.03214 0.43607 0.04904 -0.23700
N 	N 	0.07460 0.43402 0.03397 -0.20000
N 	N 	0.09529 0.42466 0.07233 -0.20100
N 	N 	0.06667 0.41710 0.11403 -0.09700
N 	N 	0.04969 0.53303 0.97744 -0.19000
N 	N 	0.05606 0.59055 0.98226 -0.08300
C 	C 	0.02700 0.42459 0.09949 0.15200
N 	N 	0.84371 0.61666 0.01232 -0.25500
N 	N 	0.86746 0.60382 0.04726 -0.19400
N 	N 	0.87042 0.64785 0.07793 -0.04800
N 	N 	0.84830 0.69049 0.06291 -0.06800
N 	N 	0.94482 0.58767 0.11461 -0.10200
N 	N 	0.94191 0.55080 0.07806 -0.20600
N 	N 	0.98104 0.53371 0.06143 -0.19100
N 	N 	1.01114 0.55934 0.08642 -0.06100
N 	N 	0.93233 0.36641 0.02360 -0.09400
N 	N 	0.93921 0.42258 0.03347 -0.18700
N 	N 	0.90242 0.44026 0.05799 -0.19800
N 	N 	0.87137 0.39638 0.06650 -0.10100
N 	N 	0.95467 0.51916 0.96303 -0.23100
N 	N 	0.91373 0.52813 0.98201 -0.19300
N 	N 	0.89156 0.54422 0.94656 -0.20400
N 	N 	0.91756 0.54928 0.90295 -0.11500
Cl	Cl	0.16560 0.47746 -0.00560 -0.75300
Cl	Cl	0.82183 0.49143 1.02401 -0.73200
C 	C 	0.83155 0.67026 0.02206 0.13100
C 	C 	0.98812 0.59266 0.11951 0.17400
C 	C 	0.89010 0.35070 0.04529 0.17100
C 	C 	0.95710 0.53435 0.91328 0.16100
Mn	Mn	0.62652 0.97798 0.14825 1.24600
Mn	Mn	0.55335 0.07004 0.11198 1.27600
Mn	Mn	0.38220 0.05053 0.85834 1.22100
Mn	Mn	0.45447 0.95913 0.89757 1.28000
Mn	Mn	0.49987 0.01207 0.00827 1.26700
C 	C 	0.68764 0.08282 0.09570 0.14200
N 	N 	0.64730 1.05690 0.11427 -0.23000
N 	N 	0.61920 0.09415 0.10444 -0.19500
N 	N 	0.64092 0.14206 0.08205 -0.04100
N 	N 	0.68393 0.13649 0.07641 -0.07800
N 	N 	0.56882 0.16711 0.03965 -0.10000
N 	N 	0.54741 0.11527 0.05031 -0.20600
N 	N 	0.53283 0.09335 0.01032 -0.19300
N 	N 	0.54627 0.12989 0.97120 -0.07700
C 	C 	0.56793 0.17622 -0.00937 0.14800
C 	C 	0.42701 0.00347 0.15004 0.15000
N 	N 	0.48897 0.04279 0.11762 -0.20200
N 	N 	0.46338 0.03424 0.16122 -0.09200
N 	N 	0.54913 0.97484 0.03675 -0.22800
N 	N 	0.56780 0.99785 0.07388 -0.18000
N 	N 	0.59374 0.96133 0.08985 -0.17800
N 	N 	0.59330 0.91338 0.06385 -0.09200
N 	N 	0.46936 1.01917 0.08102 -0.17700
N 	N 	0.43044 0.99248 0.10058 -0.06500
C 	C 	0.56602 0.92206 0.02994 0.17800
N 	N 	0.36155 -0.03133 0.88582 -0.26600
N 	N 	0.38990 0.93298 0.89767 -0.18600
N 	N 	0.36932 0.88115 0.91201 -0.04600
N 	N 	0.32647 0.88246 0.91093 -0.08700
N 	N 	0.42964 0.86125 0.97151 -0.10700
N 	N 	0.45359 0.91194 0.96185 -0.20200
N 	N 	0.46653 0.93231 1.00347 -0.18400
N 	N 	0.45112 0.89550 0.04156 -0.09200
N 	N 	0.57767 0.01057 0.92975 -0.07600
N 	N 	0.53402 0.00551 0.93828 -0.19600
N 	N 	0.51826 0.98636 0.89797 -0.19000
N 	N 	0.55111 0.97786 0.86202 -0.10000
N 	N 	0.44970 0.04723 0.97882 -0.22900
N 	N 	0.43800 0.03026 0.93567 -0.19300
N 	N 	0.40939 0.06398 0.92146 -0.20300
N 	N 	0.39910 0.10204 0.95616 -0.11000
Cl	Cl	0.56321 1.01756 0.18102 -0.73700
Cl	Cl	0.44889 0.01518 0.82875 -0.75500
C 	C 	0.32182 0.93714 0.89508 0.15900
C 	C 	0.42817 0.85156 1.02106 0.17600
C 	C 	0.58815 0.99347 0.88232 0.16300
C 	C 	0.42403 0.09128 0.99233 0.16000
Mn	Mn	0.16215 0.12514 0.56988 1.25500
Mn	Mn	0.11847 1.00291 0.51557 1.28200
Mn	Mn	0.83802 0.91026 0.43441 1.21500
Mn	Mn	0.88972 0.03295 0.47985 1.26900
Mn	Mn	0.00442 0.01380 0.49445 1.26100
C 	C 	0.15790 0.02876 0.65198 0.14100
N 	N 	0.15370 0.04584 0.60512 -0.24300
N 	N 	0.13748 0.99879 0.58430 -0.18400
N 	N 	0.13212 0.95371 0.61641 -0.03500
N 	N 	0.14455 0.97115 0.65933 -0.07500
N 	N 	0.07085 0.89468 0.56356 -0.08500
N 	N 	0.06762 0.94127 0.53567 -0.20600
N 	N 	0.02589 0.94638 0.53152 -0.20000
N 	N 	1.00029 0.90322 0.55746 -0.09100
C 	C 	0.02898 0.87081 0.57687 0.13500
C 	C 	0.10132 1.01539 0.36980 0.17600
N 	N 	0.09939 1.01048 0.44807 -0.19300
N 	N 	0.12720 1.01209 0.40579 -0.09700
N 	N 	0.04069 0.07314 0.53189 -0.24000
N 	N 	0.08148 0.06690 0.53936 -0.20200
N 	N 	0.09791 0.11311 0.56106 -0.20700
N 	N 	0.06812 0.15089 0.57015 -0.11500
N 	N 	0.05832 0.01256 0.43911 -0.20200
N 	N 	0.05820 0.01602 0.39002 -0.12200
C 	C 	0.03216 0.12570 0.55218 0.15000
N 	N 	0.85145 0.98638 0.39407 -0.26000
N 	N 	0.86653 0.03518 0.41321 -0.20300
N 	N 	0.87587 0.07671 0.37778 -0.05500
N 	N 	0.86864 0.05436 0.33432 -0.09800
N 	N 	0.94177 0.13710 0.42562 -0.11000
N 	N 	0.94276 0.08919 0.45319 -0.21000
N 	N 	0.98422 0.08041 0.45678 -0.19500
N 	N 	0.01153 0.12192 0.43167 -0.12100
N 	N 	0.95791 1.01227 0.59826 -0.09700
N 	N 	0.95332 1.01662 0.55050 -0.18900
N 	N 	0.91239 0.02718 0.54616 -0.20500
N 	N 	0.88874 0.03009 0.59110 -0.10300
N 	N 	0.96484 0.95571 0.45901 -0.23400
N 	N 	0.92299 0.96380 0.45664 -0.19300
N 	N 	0.90247 0.91645 0.44078 -0.21200
N 	N 	0.92968 0.87566 0.43116 -0.12300
Cl	Cl	0.17439 0.07539 0.49699 -0.72600
Cl	Cl	0.83131 0.96567 0.50470 -0.75100
C 	C 	0.85498 0.99725 0.34443 0.14200
C 	C 	0.98482 0.15685 0.41251 0.15600
C 	C 	0.91781 0.02086 0.62302 0.14500
C 	C 	0.96852 0.90025 0.44264 0.15500
C 	C 	-0.01042 0.15434 0.55443 -0.18000
C 	C 	-0.01049 0.20882 0.58556 0.04900
C 	C 	-0.03637 0.20550 0.63297 -0.05600
C 	C 	-0.03996 0.25438 0.66230 -0.04100
C 	C 	-0.01765 0.30875 0.64578 0.03500
C 	C 	-0.02895 0.36055 0.67801 -0.10200
C 	C 	-0.01786 0.35491 0.73085 0.02700
C 	C 	-0.05245 0.34968 0.77147 -0.12700
C 	C 	-0.04386 0.35355 0.82097 0.17400
Cl	Cl	0.91048 0.34866 0.86897 -0.33600
C 	C 	0.00014 0.36195 0.83092 -0.06200
C 	C 	0.03480 0.36316 0.79043 -0.05300
C 	C 	0.02617 0.36032 0.74084 0.12900
Cl	Cl	0.07158 0.36773 0.69241 -0.34200
C 	C 	0.01024 0.31324 0.59829 0.00800
C 	C 	0.03487 0.36623 0.57965 -0.03200
C 	C 	0.06145 0.36956 0.53294 -0.02200
C 	C 	0.06413 0.32070 0.50350 -0.03300
C 	C 	0.04043 0.26790 0.52057 -0.03600
C 	C 	0.01350 0.26284 0.56798 -0.01300
H 	H 	-0.03821 0.12279 0.57068 0.06000
H 	H 	-0.01692 0.16631 0.51656 0.06500
H 	H 	-0.05479 0.16473 0.64722 0.03900
H 	H 	-0.06159 0.25005 0.69798 0.04400
H 	H 	-0.01386 0.40334 0.66195 0.06400
H 	H 	-0.06509 0.36360 0.67941 0.04800
H 	H 	0.91347 0.34472 0.76469 0.09100
H 	H 	0.06890 0.36964 0.79700 0.07000
H 	H 	0.03516 0.40572 0.60050 0.05700
H 	H 	0.08027 0.41039 0.51956 0.04100
H 	H 	0.08491 0.32368 0.46730 0.03500
H 	H 	0.04385 0.23121 0.49626 0.03700
C 	C 	0.86413 -0.05024 0.30765 -0.17700
C 	C 	0.86356 -0.03391 0.25278 0.05500
C 	C 	0.83048 -0.06317 0.22944 -0.07200
C 	C 	0.83020 -0.05632 0.17831 -0.03700
C 	C 	0.86236 -0.01885 0.14799 0.04000
C 	C 	0.85669 -0.01244 0.09308 -0.12600
C 	C 	0.81388 0.01362 0.08923 0.02800
C 	C 	0.77652 0.97642 0.08283 -0.10600
C 	C 	0.73506 0.99744 0.08522 0.18800
Cl	Cl	0.69156 0.94714 0.07413 -0.46400
C 	C 	0.73030 0.05713 0.09372 -0.10900
C 	C 	0.76822 0.09486 0.09743 -0.03500
C 	C 	0.80964 0.07363 0.09549 0.11900
Cl	Cl	0.85527 0.12379 0.10066 -0.31400
C 	C 	0.89702 0.01105 0.17017 0.01100
C 	C 	0.93159 0.04775 0.14157 -0.02500
C 	C 	0.96480 0.07722 0.16416 -0.00200
C 	C 	0.96507 0.06995 0.21526 -0.01500
C 	C 	0.93231 0.03284 0.24421 -0.03100
C 	C 	0.89749 0.00343 0.22295 -0.00500
H 	H 	0.83981 -0.08840 0.32000 0.00400
H 	H 	0.89700 -0.06514 0.31139 0.05300
H 	H 	0.80483 0.90712 0.25085 0.04700
H 	H 	0.80413 -0.08074 0.16220 0.03700
H 	H 	0.88372 0.01355 0.06873 0.08300
H 	H 	0.85618 0.94329 0.07708 0.08800
H 	H 	0.77942 0.93031 0.07705 0.09200
H 	H 	0.76559 0.14115 0.10239 0.06900
H 	H 	0.93416 0.05475 0.10165 0.06600
H 	H 	-0.00927 0.10549 0.14173 0.03800
H 	H 	-0.00871 0.09249 0.23242 0.02200
H 	H 	0.93488 0.02734 0.28337 0.04700
C 	C 	1.01033 0.87190 0.42997 -0.17900
C 	C 	1.01406 0.84437 0.37827 0.05700
C 	C 	1.02085 0.78488 0.37588 -0.05900
C 	C 	1.03481 0.75974 0.33034 -0.03000
C 	C 	1.04270 0.79306 0.28543 0.03100
C 	C 	1.06859 0.76712 0.24014 -0.08500
C 	C 	1.04363 0.71822 0.21552 0.03900
C 	C 	0.06669 0.67003 0.19969 -0.11400
C 	C 	0.04918 0.62764 0.16957 0.19300
Cl	Cl	0.08158 0.57004 0.15107 -0.31300
C 	C 	1.00748 0.63286 0.15448 -0.02600
C 	C 	0.98354 0.67928 0.17208 -0.04900
C 	C 	1.00106 0.72191 0.20178 0.13800
Cl	Cl	0.96753 0.77837 0.21934 -0.33200
C 	C 	1.03120 0.85155 0.28568 0.03800
C 	C 	0.03427 0.88544 0.24064 -0.05600
C 	C 	0.02399 0.94308 0.24147 -0.00500
C 	C 	0.01022 0.96804 0.28681 -0.05900
C 	C 	1.00498 0.93519 0.33134 -0.00400
C 	C 	1.01602 0.87704 0.33230 -0.02600
H 	H 	1.01100 0.83809 0.45978 0.07600
H 	H 	1.03910 0.90391 0.43149 0.06700
H 	H 	1.01830 0.75832 0.40995 0.05000
H 	H 	1.04252 0.71470 0.33053 0.05000
H 	H 	1.08345 0.80022 0.21083 0.06700
H 	H 	0.09811 0.75069 0.25332 0.04300
H 	H 	0.09954 0.66635 0.20912 0.08500
H 	H 	0.95130 0.68375 0.16119 0.08300
H 	H 	0.04341 0.86798 0.20408 0.06300
H 	H 	0.02714 0.96871 0.20685 0.03800
H 	H 	0.00527 1.01386 0.28805 0.04400
H 	H 	0.99320 0.95728 0.36449 0.04300
C 	C 	0.11711 0.00461 0.31537 -0.19900
C 	C 	0.15869 0.97230 0.30823 0.09600
C 	C 	0.19523 -0.00367 0.27472 -0.10400
C 	C 	0.23498 0.97073 0.26922 0.02400
C 	C 	0.24092 0.92279 0.30012 0.01700
C 	C 	0.28615 0.90020 0.30025 -0.09300
C 	C 	0.32363 0.92831 0.26238 0.02300
C 	C 	0.34524 0.89300 0.22656 -0.11100
C 	C 	0.38046 0.91669 0.19144 0.20000
Cl	Cl	0.41447 0.86867 0.15824 -0.34600
C 	C 	0.39183 -0.02275 0.18859 -0.06400
C 	C 	0.37253 0.01222 0.22613 -0.06500
C 	C 	0.33986 0.98765 0.26423 0.15100
Cl	Cl	0.32034 0.03220 0.31358 -0.33700
C 	C 	0.20359 0.89578 0.33238 0.01700
C 	C 	0.20661 0.84583 0.36280 -0.04400
C 	C 	0.16933 0.81838 0.39270 -0.02000
C 	C 	0.12842 0.83960 0.39281 -0.03800
C 	C 	0.12470 0.88879 0.36348 -0.02700
C 	C 	0.16192 0.91892 0.33434 -0.02600
H 	H 	0.09146 -0.02269 0.29968 0.07100
H 	H 	0.12213 0.04723 0.29429 0.07300
H 	H 	0.19312 0.03552 0.25259 0.05900
H 	H 	0.26136 -0.00948 0.24155 0.03600
H 	H 	0.29584 0.90527 0.33821 0.07700
H 	H 	0.28230 0.85261 0.29335 0.05300
H 	H 	0.33622 0.84629 0.22740 0.08100
H 	H 	0.38352 0.05838 0.22627 0.07900
H 	H 	0.23750 0.82713 0.36401 0.04500
H 	H 	0.17216 0.78022 0.41568 0.04200
H 	H 	0.09955 0.81806 0.41601 0.03700
H 	H 	0.09261 0.90363 0.36409 0.03800
C 	C 	1.00189 0.20995 0.38012 -0.15900
C 	C 	0.96947 0.22655 0.34611 0.04200
C 	C 	0.97476 0.20601 0.29727 -0.02600
C 	C 	0.94909 0.22375 0.26246 -0.05100
C 	C 	0.91762 0.26382 0.27456 0.04100
C 	C 	0.89314 0.28214 0.23247 -0.11700
C 	C 	0.92379 0.32177 0.19453 0.03300
C 	C 	0.93757 0.37831 0.20841 -0.11700
C 	C 	0.96927 0.41455 0.17659 0.19100
Cl	Cl	-0.01114 0.48140 0.19950 -0.34100
C 	C 	0.98649 0.39545 0.12899 -0.07300
C 	C 	0.97236 0.33923 0.11501 -0.04300
C 	C 	0.94134 0.30255 0.14698 0.11900
Cl	Cl	0.92879 0.23133 0.12722 -0.32100
C 	C 	0.91093 0.28493 0.32433 -0.00500
C 	C 	0.88036 0.32615 0.33914 -0.03500
C 	C 	0.87370 0.34484 0.38841 -0.02600
C 	C 	0.89712 0.32324 0.42400 -0.02700
C 	C 	0.92820 0.28369 0.41044 -0.03500
C 	C 	0.93633 0.26472 0.36062 -0.00200
H 	H 	1.01135 0.24674 0.40372 0.06800
H 	H 	1.03341 0.20068 0.35692 0.07300
H 	H 	-0.00039 0.17646 0.28569 0.02700
H 	H 	0.95458 0.20675 0.22509 0.07100
H 	H 	0.88013 0.24207 0.21505 0.08800
H 	H 	0.86316 0.30409 0.24527 0.05800
H 	H 	0.92507 0.39330 0.24517 0.08500
H 	H 	0.98756 0.32238 0.08001 0.07200
H 	H 	0.86150 0.34540 0.31348 0.03800
H 	H 	0.85001 0.37617 0.39916 0.03800
H 	H 	0.89147 0.33767 0.46226 0.03800
H 	H 	0.94531 0.26789 0.43961 0.04100
C 	C 	0.55287 0.87532 -0.00538 -0.18400
C 	C 	0.59114 0.84307 0.96887 0.09100
C 	C 	0.61862 0.81759 -0.00123 -0.07400
C 	C 	0.65686 0.79375 0.97774 0.00800
C 	C 	0.66859 0.79199 0.92550 0.02500
C 	C 	0.71219 0.76960 0.90261 -0.09700
C 	C 	0.73952 0.74475 0.93900 0.02000
C 	C 	0.77140 0.78176 0.95875 -0.10700
C 	C 	0.80095 0.75895 0.98742 0.18200
Cl	Cl	0.84124 0.80782 1.00886 -0.32100
C 	C 	0.79922 0.69802 0.99599 -0.07400
C 	C 	0.76615 0.66153 -0.02203 -0.09200
C 	C 	0.73625 0.68427 0.95022 0.13700
Cl	Cl	0.69547 0.63516 -0.07021 -0.36100
C 	C 	0.63853 0.81073 0.89431 0.01600
C 	C 	0.64646 0.80470 0.84168 -0.03900
C 	C 	0.61550 0.81875 0.81157 -0.01400
C 	C 	0.57593 0.83866 0.83297 -0.03300
C 	C 	0.56737 0.84609 0.88455 -0.01600
C 	C 	0.59885 0.83448 0.91613 -0.02100
H 	H 	0.52820 0.84254 0.01621 0.07700
H 	H 	0.53692 0.89731 -0.03311 0.06000
H 	H 	0.61082 0.81618 0.03920 0.06500
H 	H 	0.67740 0.77716 0.00311 0.04600
H 	H 	0.70550 0.73535 0.87551 0.07700
H 	H 	0.73263 0.80591 0.88018 0.05300
H 	H 	0.77398 0.82841 0.95076 0.09000
H 	H 	0.76351 0.61479 -0.01455 -0.01700
H 	H 	0.67619 0.78834 0.82291 0.04400
H 	H 	0.62202 0.81336 0.77142 0.05200
H 	H 	0.55157 0.84820 0.80943 0.04100
H 	H 	0.53509 0.85898 0.89866 0.02000
C 	C 	0.86386 0.29364 0.03876 -0.17000
C 	C 	0.82209 0.30457 0.01668 0.06600
C 	C 	0.82320 0.29892 -0.03508 -0.05100
C 	C 	0.78835 0.31369 -0.05912 -0.03200
C 	C 	0.75001 0.33301 -0.03216 0.02300
C 	C 	0.71405 0.35054 -0.06160 -0.11700
C 	C 	0.67361 0.30624 -0.05530 0.02100
C 	C 	0.67932 0.24713 0.93624 -0.09700
C 	C 	0.64359 0.20415 0.94546 0.18900
Cl	Cl	0.65463 0.13055 0.94089 -0.29400
C 	C 	0.60078 0.21977 -0.03758 -0.06600
C 	C 	0.59441 0.27908 -0.03249 -0.04900
C 	C 	0.63015 0.32230 -0.04184 0.12600
Cl	Cl	0.61874 0.39556 -0.03437 -0.33100
C 	C 	0.74694 0.33697 0.02081 0.01800
C 	C 	0.70878 0.35515 0.04994 -0.03900
C 	C 	0.70624 0.35978 0.10174 -0.01200
C 	C 	0.74159 0.34701 0.12562 -0.02800
C 	C 	0.77971 0.32883 0.09799 -0.02100
C 	C 	0.78328 0.32318 0.04540 -0.00500
H 	H 	0.88501 0.26607 0.01385 0.10000
H 	H 	0.85533 0.26899 0.07511 0.10300
H 	H 	0.85191 0.28385 -0.05745 0.07800
H 	H 	0.79160 0.31018 -0.09949 0.04800
H 	H 	0.70582 0.39500 -0.05077 0.07900
H 	H 	0.72697 0.35455 0.89764 0.07000
H 	H 	0.71212 0.23384 0.92488 0.08900
H 	H 	0.56186 0.29169 -0.01845 0.07300
H 	H 	0.68049 0.36599 0.03335 0.06600
H 	H 	0.67667 0.37359 0.12348 0.04300
H 	H 	0.73944 0.35128 0.16586 0.03900
H 	H 	0.80615 0.31967 0.11852 0.04500
C 	C 	0.27749 0.95704 0.89158 -0.18800
C 	C 	0.27773 1.02022 0.87597 0.01700
C 	C 	0.28653 1.03422 0.82469 -0.09300
C 	C 	0.27216 0.08443 0.80584 -0.06500
C 	C 	0.24622 0.12021 0.83734 0.03400
C 	C 	0.21949 0.16240 0.81292 -0.11100
C 	C 	0.19819 0.13326 0.77120 0.04100
C 	C 	0.21481 0.14971 0.72114 -0.12400
C 	C 	0.20206 0.11680 0.68157 0.17700
Cl	Cl	0.23000 0.13566 0.62088 -0.51100
C 	C 	0.17094 0.06732 0.69176 -0.11700
C 	C 	0.15267 1.05270 0.74178 -0.00200
C 	C 	0.16583 0.08525 0.78128 0.09500
Cl	Cl	0.14263 1.06273 0.84304 -0.30200
C 	C 	0.24350 0.11196 0.89017 -0.00200
C 	C 	0.22460 0.15182 0.92428 -0.03000
C 	C 	0.22279 0.14284 0.97588 -0.03200
C 	C 	0.24098 0.09530 0.99456 -0.00500
C 	C 	0.25955 0.05503 0.96181 -0.04700
C 	C 	0.26045 0.06199 0.90952 -0.02900
H 	H 	0.26181 0.92924 0.86460 0.09000
H 	H 	0.25589 0.94670 0.92781 0.09200
H 	H 	0.30146 1.00377 0.79865 0.03000
H 	H 	0.27735 0.09179 0.76562 0.04700
H 	H 	0.19243 0.17801 0.83955 0.07600
H 	H 	0.24206 0.20135 0.79820 0.05200
H 	H 	0.24010 0.18604 0.71296 0.08200
H 	H 	0.12848 1.01512 0.75035 0.06900
H 	H 	0.21226 0.19110 0.91188 0.04700
H 	H 	0.20800 0.17366 1.00148 0.04800
H 	H 	0.24091 0.08975 0.03456 0.03200
H 	H 	0.27424 0.01946 0.97770 0.05500
C 	C 	0.99861 0.54982 0.87677 -0.18000
C 	C 	0.99851 0.61072 0.85267 0.05700
C 	C 	1.00022 0.61535 0.80035 -0.05700
C 	C 	0.99950 0.66918 0.77580 -0.02000
C 	C 	-0.00224 0.72102 0.80251 0.02000
C 	C 	-0.00329 0.78004 0.77626 -0.12100
C 	C 	-0.00074 0.78280 0.71959 0.01800
C 	C 	0.04005 0.77692 0.68988 -0.10900
C 	C 	0.04871 0.79844 0.64014 0.18100
Cl	Cl	0.10120 0.78995 0.60607 -0.32800
C 	C 	0.01650 0.82796 0.61977 -0.06900
C 	C 	0.97375 0.82548 0.64693 -0.04000
C 	C 	0.96485 0.80334 0.69650 0.13600
Cl	Cl	0.91131 0.80729 0.72966 -0.34200
C 	C 	-0.00377 0.71786 0.85554 -0.00700
C 	C 	-0.00573 0.76882 0.88440 -0.03700
C 	C 	-0.00821 0.76560 0.93636 -0.01000
C 	C 	-0.00916 0.71196 0.96090 -0.04000
C 	C 	0.99263 0.66128 0.93358 -0.00900
C 	C 	0.99607 0.66268 0.88075 -0.00400
H 	H 	1.00040 0.51591 0.84785 0.08000
H 	H 	1.02841 0.54869 0.89486 0.07600
H 	H 	1.00181 0.57667 0.77802 0.05400
H 	H 	1.00024 0.66978 0.73556 0.05400
H 	H 	0.96665 0.79932 0.79393 0.09700
H 	H 	0.02527 0.80934 0.78511 0.06700
H 	H 	0.06638 0.75947 0.70659 0.08800
H 	H 	0.94812 0.84507 0.63102 0.06500
H 	H 	-0.00556 0.81187 0.86762 0.04800
H 	H 	-0.00983 0.80494 0.95773 0.05300
H 	H 	-0.01158 0.70943 1.00140 0.06400
H 	H 	0.99058 0.62133 0.95486 0.04500
C 	C 	0.90776 0.01600 0.67898 -0.19500
C 	C 	0.86229 0.98703 0.70043 0.09600
C 	C 	0.83826 0.01593 0.73909 -0.09200
C 	C 	0.80093 0.98809 0.76821 -0.00400
C 	C 	0.78458 0.93122 0.75844 0.03300
C 	C 	0.75089 0.89940 0.79911 -0.09600
C 	C 	0.71210 0.93340 0.81784 0.02200
C 	C 	0.70515 0.94724 0.86863 -0.10400
C 	C 	0.66645 0.97029 0.88989 0.18200
Cl	Cl	0.66084 0.98117 0.95496 -0.27000
C 	C 	0.63318 0.97990 0.86003 -0.04800
C 	C 	0.64152 0.96948 0.80841 -0.05300
C 	C 	0.68043 0.94623 0.78729 0.13300
Cl	Cl	0.68681 0.92987 0.72325 -0.33300
C 	C 	0.80541 0.90297 0.71595 0.02600
C 	C 	0.78816 0.84782 0.70102 -0.02900
C 	C 	0.81081 0.81886 0.66180 -0.01100
C 	C 	0.85097 0.84377 0.63666 -0.01800
C 	C 	0.86841 0.89841 0.64974 -0.00800
C 	C 	0.84569 0.92996 0.68822 -0.01200
H 	H 	0.93268 -0.00969 0.69291 0.08400
H 	H 	0.91333 1.06072 0.69311 0.08900
H 	H 	0.85023 0.05920 0.74945 0.05900
H 	H 	0.78590 1.01033 0.80045 0.05400
H 	H 	0.73716 0.85625 0.78863 0.06100
H 	H 	0.76929 0.88999 0.83053 0.05700
H 	H 	0.72911 0.93748 0.89273 0.08900
H 	H 	0.61678 0.97697 0.78470 0.08000
H 	H 	0.75667 0.82657 0.71786 0.05400
H 	H 	0.79722 0.77658 0.65105 0.03800
H 	H 	0.86884 0.82055 0.60685 0.03800
H 	H 	0.89997 0.91466 0.62933 0.05200
C 	C 	0.39797 0.80492 1.05157 -0.17400
C 	C 	0.36690 0.76889 1.02231 0.06100
C 	C 	0.32816 0.79275 1.01319 -0.05200
C 	C 	0.29311 0.75808 0.99783 -0.02600
C 	C 	0.29527 0.69786 0.99199 0.03100
C 	C 	0.25551 0.65839 0.98094 -0.09700
C 	C 	0.21370 0.68521 0.97188 0.03700
C 	C 	0.17961 0.68792 0.01255 -0.11500
C 	C 	0.13513 0.67801 0.00536 0.17800
Cl	Cl	0.09338 0.67788 0.05714 -0.32400
C 	C 	0.12512 0.66107 0.95814 -0.04400
C 	C 	0.15795 0.67440 0.91643 -0.05100
C 	C 	0.20230 0.68638 0.92303 0.13200
Cl	Cl	0.24312 0.69210 0.86957 -0.32000
C 	C 	0.33526 0.67331 0.99829 0.00700
C 	C 	0.33971 0.61295 0.99228 -0.03800
C 	C 	0.37929 0.58962 0.99717 -0.02000
C 	C 	0.41544 0.62567 1.00765 -0.02700
C 	C 	0.41190 0.68502 1.01470 -0.02700
C 	C 	0.37172 0.70951 1.01174 -0.01300
H 	H 	0.41762 0.77762 1.07237 0.09100
H 	H 	0.37676 0.82685 1.08091 0.11000
H 	H 	0.32426 0.83835 1.02028 0.07200
H 	H 	0.26351 0.77830 0.99277 0.05800
H 	H 	0.26639 0.63248 0.94782 0.08300
H 	H 	0.24637 0.62591 0.01273 0.05200
H 	H 	0.18751 0.69084 0.05036 0.08400
H 	H 	0.15049 0.66504 0.87912 0.07500
H 	H 	0.31288 0.58279 0.98395 0.04400
H 	H 	0.38204 0.54337 0.99234 0.04200
H 	H 	0.44636 0.60752 1.01047 0.04800
H 	H 	0.44127 0.71150 1.02132 0.04300
C 	C 	0.22751 0.32670 1.01600 -0.14000
C 	C 	0.24090 0.28105 0.05081 0.00900
C 	C 	0.27597 0.24933 1.03139 -0.01400
C 	C 	0.29718 0.21623 0.06237 -0.07200
C 	C 	0.28488 0.21382 0.11489 0.04300
C 	C 	0.31158 0.18182 0.14900 -0.11200
C 	C 	0.34914 0.15164 0.12076 0.03000
C 	C 	0.33960 0.09454 0.10550 -0.11900
C 	C 	0.36739 0.07118 0.06692 0.18700
Cl	Cl	0.34884 0.00360 0.04335 -0.36900
C 	C 	0.40649 0.10414 0.04413 -0.09300
C 	C 	0.41854 0.15873 0.06297 -0.06000
C 	C 	0.39015 0.18269 0.10117 0.12400
Cl	Cl	0.40427 0.25460 0.11861 -0.33500
C 	C 	0.24768 0.24298 0.13540 -0.00200
C 	C 	0.23228 0.24013 0.18752 -0.04400
C 	C 	0.19606 0.26911 0.20750 -0.01600
C 	C 	0.17481 0.30211 0.17633 -0.05900
C 	C 	0.18948 0.30627 0.12484 -0.01600
C 	C 	0.22559 0.27671 0.10327 -0.02000
H 	H 	0.25143 0.33180 0.98064 0.06500
H 	H 	0.23111 0.36982 1.03380 -0.00800
H 	H 	0.28846 0.25189 0.99160 0.03400
H 	H 	0.32440 0.19401 1.04423 0.06700
H 	H 	0.32486 0.21319 0.17522 0.08400
H 	H 	0.28876 0.14838 0.17246 0.05900
H 	H 	0.30827 0.07024 0.12011 0.08000
H 	H 	0.44772 0.18515 1.04465 0.07500
H 	H 	0.24777 0.21546 0.21349 0.04400
H 	H 	0.18454 0.26611 0.24747 0.03400
H 	H 	0.14676 0.32464 0.19213 0.02900
H 	H 	0.17194 0.33239 0.10236 -0.07700
