data_crystal

_cell_length_a 24.61790
_cell_length_b 18.79140
_cell_length_c 21.83130
_cell_angle_alpha 92.37050
_cell_angle_beta  79.72480
_cell_angle_gamma 95.32570

_symmetry_space_group_name_	'P 1'
_symmetry_space_group_name_H-M	'P 1'

loop_
_symmetry_equiv_pos_as_xyz
  x,y,z

loop_
_atom_site_label
_atom_site_type_symbol
_atom_site_fract_x
_atom_site_fract_y
_atom_site_fract_z
_atom_site_charge
Mn	Mn	0.18296 0.38407 0.02047 1.23200
Mn	Mn	0.10304 0.44547 0.93043 1.30300
Mn	Mn	0.76092 0.59061 0.98680 1.27200
Mn	Mn	0.85027 0.58459 0.09101 1.27400
Mn	Mn	-0.02200 0.51644 0.01071 1.26000
C 	C 	0.17494 0.26293 0.92310 0.14200
N 	N 	0.15518 0.32070 0.95462 -0.23500
N 	N 	0.11940 0.34235 0.92311 -0.17500
N 	N 	0.11556 0.29913 0.87441 -0.02000
N 	N 	0.14935 0.24791 0.87370 -0.02600
N 	N 	0.01977 0.38760 0.85578 -0.06900
N 	N 	0.02776 0.41870 0.90927 -0.18900
N 	N 	-0.01856 0.44218 0.93956 -0.17700
N 	N 	-0.05870 0.42595 0.90688 -0.05900
C 	C 	-0.03453 0.39130 0.85501 0.13000
C 	C 	0.10680 0.66077 0.94031 0.10500
N 	N 	0.08998 0.54890 0.93607 -0.18500
N 	N 	0.12980 0.60005 0.92015 -0.04200
N 	N 	0.03092 0.46023 0.05138 -0.38500
N 	N 	0.07507 0.43626 0.02456 -0.45300
N 	N 	0.10289 0.40394 0.05927 -0.18900
N 	N 	0.05967 0.44381 0.05228 0.42400
N 	N 	0.04454 0.57604 0.96453 -0.18500
N 	N 	0.05330 0.64671 0.96819 -0.04800
C 	C 	0.02243 0.45584 0.11129 0.04300
N 	N 	0.79418 0.68053 0.02599 -0.23200
N 	N 	0.82608 0.67970 0.06887 -0.19000
N 	N 	0.85244 0.74362 0.07390 -0.04000
N 	N 	0.83848 0.78666 0.03349 -0.03500
N 	N 	0.93501 0.66778 0.15048 -0.05600
N 	N 	0.92678 0.62443 0.10318 -0.19300
N 	N 	0.97249 0.59310 0.08080 -0.17500
N 	N 	1.01266 0.61730 0.11142 -0.03700
N 	N 	0.89344 0.39012 0.05116 -0.07200
N 	N 	0.91034 0.45816 0.06095 -0.16900
N 	N 	0.87320 0.48748 0.10365 -0.18000
N 	N 	0.83354 0.43872 0.12545 -0.08500
N 	N 	0.92546 0.56981 0.96969 -0.21300
N 	N 	0.87409 0.56868 0.99953 -0.18300
N 	N 	0.83911 0.56428 0.96044 -0.17300
N 	N 	0.86663 0.56510 0.90312 -0.07100
Cl	Cl	0.18770 0.47380 -0.04522 -0.77000
Cl	Cl	0.76434 0.53859 1.07711 -0.67300
C 	C 	0.80275 0.74660 0.00284 0.05300
C 	C 	0.98852 0.66325 0.15507 0.13700
C 	C 	0.84557 0.37848 0.09273 0.15700
C 	C 	0.92121 0.57220 0.90813 0.17000
Mn	Mn	0.49750 0.90341 0.24424 1.25600
Mn	Mn	0.48544 0.04831 0.15979 1.28400
Mn	Mn	0.51846 0.09730 0.73552 1.23500
Mn	Mn	0.52845 0.95586 0.82695 1.28000
Mn	Mn	0.50303 0.00324 -0.00694 1.25900
C 	C 	0.61219 -0.01491 0.22040 0.06400
N 	N 	0.55684 0.98713 0.23034 -0.20300
N 	N 	0.54837 0.04831 0.20749 -0.19500
N 	N 	0.59616 0.08654 0.19092 -0.04700
N 	N 	0.63685 0.04866 0.19906 -0.06100
N 	N 	0.55886 0.16917 0.10249 -0.06200
N 	N 	0.53293 0.10639 0.09214 -0.19100
N 	N 	0.53899 0.09164 0.03186 -0.19500
N 	N 	0.57026 0.14414 1.00065 0.00700
C 	C 	0.58297 0.19142 0.04552 0.07800
C 	C 	0.34428 0.02013 0.09183 0.13100
N 	N 	0.42459 0.04108 0.11065 -0.18000
N 	N 	0.37258 0.04312 0.13694 -0.03300
N 	N 	0.52316 0.93985 0.05949 -0.22300
N 	N 	0.50652 0.95452 0.11904 -0.18400
N 	N 	0.50494 0.89723 0.15180 -0.18200
N 	N 	0.52301 0.84373 0.11573 -0.08600
N 	N 	0.42892 1.01801 0.05180 -0.15700
N 	N 	0.37853 1.00351 0.03845 -0.02800
C 	C 	0.53688 0.87031 0.05770 0.12300
N 	N 	0.46780 0.00641 0.73690 -0.26000
N 	N 	0.47124 0.95129 0.77086 -0.18600
N 	N 	0.42847 0.90378 0.76886 -0.04000
N 	N 	0.39532 0.92892 0.73477 -0.07700
N 	N 	0.43725 0.84995 0.88011 -0.10000
N 	N 	0.47605 0.89858 0.89344 -0.20000
N 	N 	0.46637 0.91540 0.95356 -0.16700
N 	N 	0.42038 0.87852 -0.01916 -0.11900
N 	N 	0.62595 0.01947 0.95227 -0.04300
N 	N 	0.57858 -0.00985 0.93808 -0.18500
N 	N 	0.58707 0.96773 0.87933 -0.19400
N 	N 	0.63954 0.98273 0.85365 -0.05600
N 	N 	0.48330 0.06529 0.92415 -0.19200
N 	N 	0.50071 0.04854 0.86466 -0.18700
N 	N 	0.49660 0.10172 0.82890 -0.19200
N 	N 	0.47383 0.15434 0.86233 -0.05800
Cl	Cl	0.43430 0.98220 0.23763 -0.70100
Cl	Cl	0.58274 0.02425 0.75202 -0.70500
C 	C 	0.41986 0.99386 0.71618 0.12900
C 	C 	0.40269 0.83782 0.93451 0.15800
C 	C 	0.66378 1.01392 0.89959 0.10900
C 	C 	0.46449 0.13186 0.92163 0.18400
Mn	Mn	0.22138 0.12817 0.58557 1.28100
Mn	Mn	0.15137 0.97563 0.53766 1.28300
Mn	Mn	0.82511 0.93019 0.38304 1.23400
Mn	Mn	0.89301 0.06604 0.45708 1.27500
Mn	Mn	0.01923 0.01403 0.50089 1.25800
C 	C 	0.17528 0.04862 0.70713 0.07800
N 	N 	0.18850 0.04850 0.64472 -0.21300
N 	N 	0.16611 0.98696 0.62562 -0.18600
N 	N 	0.14089 0.94932 0.67398 -0.01500
N 	N 	0.14642 0.98626 0.72596 -0.01400
N 	N 	0.07243 0.86199 0.60224 -0.05100
N 	N 	0.07835 0.91768 0.56584 -0.20100
N 	N 	0.02990 0.93076 0.55266 -0.20700
N 	N 	0.99056 0.88473 0.58107 -0.03300
C 	C 	0.01767 0.84189 0.61136 0.07500
C 	C 	0.14369 0.97141 0.35426 0.13800
N 	N 	0.13508 0.97242 0.45173 -0.19600
N 	N 	0.17076 0.95927 0.40076 -0.09000
N 	N 	0.06500 0.07938 0.55416 -0.23300
N 	N 	0.11764 0.06966 0.55042 -0.19800
N 	N 	0.14498 0.12866 0.56665 -0.19500
N 	N 	0.11070 0.17798 0.58543 -0.09900
N 	N 	0.08895 -0.00702 0.43794 -0.20100
N 	N 	0.09276 -0.00696 0.37667 -0.11100
C 	C 	0.05983 0.14700 0.57969 0.11300
N 	N 	0.85711 1.02225 0.34110 -0.24900
N 	N 	0.88148 0.07578 0.36915 -0.19900
N 	N 	0.88813 0.13343 0.33480 -0.04900
N 	N 	0.86784 0.11743 0.28287 -0.08700
N 	N 	0.97635 0.17607 0.39984 -0.10700
N 	N 	0.96633 0.12175 0.43787 -0.21200
N 	N 	1.01280 0.10095 0.44983 -0.18200
N 	N 	0.05536 0.14223 0.42018 -0.12000
N 	N 	0.93625 1.01313 0.62036 -0.07600
N 	N 	0.94780 1.03100 0.56109 -0.18200
N 	N 	0.90340 0.05346 0.54451 -0.20500
N 	N 	0.86231 0.05363 0.59234 -0.08900
N 	N 	0.97191 0.94991 0.44794 -0.22000
N 	N 	0.92726 0.97292 0.43194 -0.19000
N 	N 	0.90085 0.92145 0.40314 -0.20300
N 	N 	0.92739 0.86327 0.39765 -0.10500
Cl	Cl	0.23288 0.04195 0.50902 -0.74300
Cl	Cl	0.81071 0.99806 0.47252 -0.72800
C 	C 	0.84892 1.04760 0.28772 0.12800
C 	C 	1.03182 0.18861 0.38918 0.16300
C 	C 	0.88347 0.02952 0.63940 0.12100
C 	C 	0.97194 0.88062 0.42537 0.12500
C 	C 	0.01123 0.16510 0.63000 -0.06900
C 	C 	0.02969 0.20112 0.68991 -0.07200
C 	C 	0.02261 0.28168 0.69515 -0.04000
C 	C 	0.96077 0.29587 0.69968 -0.05400
C 	C 	0.93198 0.30635 0.76942 0.47200
F 	F 	0.87535 0.29002 0.77395 -0.36400
F 	F 	-0.05002 0.25843 0.80645 -0.43400
C 	C 	-0.05786 0.38481 0.79523 0.35600
F 	F 	-0.10715 0.41709 0.80487 -0.38500
F 	F 	0.97893 0.42565 0.75230 -0.41500
C 	C 	0.92950 0.23776 0.66269 -0.04300
C 	C 	0.96919 0.20840 0.60644 -0.04300
H 	H 	-0.01039 0.11406 0.64666 0.04900
H 	H 	0.00403 0.17535 0.73158 0.10200
H 	H 	0.07267 0.19208 0.69359 0.10500
H 	H 	0.04780 0.30797 0.65346 0.05300
H 	H 	0.03975 0.30537 0.73591 0.09100
H 	H 	0.95983 0.34602 0.67472 0.10600
H 	H 	0.89488 0.26074 0.64609 0.07900
H 	H 	0.91102 0.19263 0.69329 0.10000
H 	H 	0.94523 0.17469 0.57624 0.03300
H 	H 	0.99112 0.25351 0.57796 0.05300
C 	C 	0.81258 1.00559 0.24938 -0.07400
C 	C 	0.78497 1.04900 0.20701 -0.01600
C 	C 	0.76224 0.00057 0.15657 -0.06800
C 	C 	0.74682 0.92128 0.17543 -0.05400
C 	C 	0.69188 0.90725 0.22468 0.42300
F 	F 	0.68858 0.83678 0.24255 -0.42000
F 	F 	0.69235 0.94948 0.27800 -0.46200
C 	C 	0.63788 0.91674 0.19952 0.40500
F 	F 	0.59888 0.86000 0.21825 -0.49400
F 	F 	0.64779 -0.08344 0.13519 -0.46700
C 	C 	0.79779 0.88845 0.19341 -0.04400
C 	C 	0.84158 0.94411 0.21332 -0.06200
H 	H 	0.77957 0.98109 0.28519 0.04300
H 	H 	0.75048 1.07577 0.23600 0.06800
H 	H 	0.81505 0.09169 0.18368 0.04100
H 	H 	0.79554 0.00049 0.11477 0.06600
H 	H 	0.72773 0.02413 0.14092 0.08000
H 	H 	0.73948 0.89130 0.13230 0.09800
H 	H 	0.81836 0.85749 0.15284 0.06700
H 	H 	0.78477 0.84985 0.23145 0.06500
H 	H 	0.86615 0.91772 0.24260 0.01200
H 	H 	0.87071 0.96476 0.17155 0.06900
C 	C 	1.01251 0.82588 0.43111 -0.02400
C 	C 	0.98236 0.75057 0.44491 -0.08000
C 	C 	0.96159 0.71183 0.38808 -0.00800
C 	C 	-0.00432 0.73517 0.32403 -0.07700
C 	C 	-0.01070 0.67730 0.27187 0.39600
F 	F 	0.01259 0.61626 0.28439 -0.39700
F 	F 	0.93294 0.65955 0.27440 -0.41700
C 	C 	1.01630 0.70218 0.20485 0.43600
F 	F 	1.07194 0.68984 0.19356 -0.38700
F 	F 	0.01263 0.77473 0.19947 -0.45000
C 	C 	0.05602 0.75641 0.33109 -0.03500
C 	C 	0.05918 0.82377 0.37335 -0.09400
H 	H 	1.03300 0.84155 0.47094 0.05000
H 	H 	1.01183 0.71701 0.46086 0.08600
H 	H 	0.94710 0.75400 0.48429 0.08200
H 	H 	0.91745 0.72128 0.38947 0.06300
H 	H 	0.96250 0.65337 0.39335 0.09700
H 	H 	-0.02170 0.78366 0.31076 0.08300
H 	H 	0.08213 0.76841 0.28523 0.08500
H 	H 	0.07325 0.71158 0.35098 0.07300
H 	H 	0.09964 0.82769 0.38963 0.04800
H 	H 	0.05858 0.87019 0.34401 0.05600
C 	C 	0.16849 -0.03832 0.28645 -0.07000
C 	C 	0.18961 0.88598 0.27305 -0.02200
C 	C 	0.18891 0.85761 0.20570 -0.03400
C 	C 	0.20210 -0.08229 0.15798 -0.06300
C 	C 	0.26488 -0.05427 0.14971 0.42700
F 	F 	0.27971 -0.03195 0.20607 -0.42100
F 	F 	0.29565 -0.11114 0.12745 -0.45300
C 	C 	0.28259 0.00775 0.10466 0.39700
F 	F 	0.26353 0.06966 0.13364 -0.43100
F 	F 	0.26228 -0.00609 0.04993 -0.44100
C 	C 	0.15812 -0.02619 0.17356 -0.04500
C 	C 	0.12900 -0.02344 0.24237 -0.05700
H 	H 	0.20417 0.00283 0.27795 0.10700
H 	H 	0.23235 -0.11270 0.28318 0.08000
H 	H 	0.16487 0.84605 0.30474 0.03800
H 	H 	0.14706 0.83115 0.20281 0.07500
H 	H 	0.21831 0.81560 0.19377 0.08500
H 	H 	0.19624 -0.10739 0.11231 0.08200
H 	H 	0.12519 -0.04053 0.14515 0.06300
H 	H 	0.17475 0.02820 0.15935 0.09800
H 	H 	0.11341 0.03015 0.25332 0.04800
H 	H 	0.09262 0.93605 0.24922 0.06200
C 	C 	0.06302 0.24421 0.34470 -0.09100
C 	C 	1.05458 0.22736 0.27635 -0.03800
C 	C 	1.01097 0.27079 0.25590 -0.02100
C 	C 	0.02326 0.35331 0.26362 -0.07700
C 	C 	0.04887 0.39117 0.20136 0.43200
F 	F 	0.06621 0.46135 0.21569 -0.41300
F 	F 	0.09542 0.35762 0.17436 -0.46200
C 	C 	0.00822 0.39180 0.15372 0.40900
F 	F 	0.00845 0.32871 0.11849 -0.42800
F 	F 	-0.04529 0.39697 0.18507 -0.43100
C 	C 	0.05971 0.37278 0.31415 -0.04000
C 	C 	0.04697 0.31971 0.36739 -0.05700
H 	H 	0.10798 0.24258 0.34545 0.05600
H 	H 	1.09466 0.23983 0.24449 0.08200
H 	H 	1.04298 0.16929 0.26944 0.05400
H 	H 	0.97003 0.25419 0.28448 0.06400
H 	H 	1.00753 0.25519 0.20715 0.10500
H 	H 	-0.01707 0.37542 0.28146 0.10000
H 	H 	0.05195 0.42729 0.33360 0.08500
H 	H 	0.10450 0.37387 0.29362 0.08500
H 	H 	0.07017 0.33902 0.40501 0.04600
H 	H 	0.00197 0.31853 0.38709 0.04500
C 	C 	0.59115 0.84834 0.02022 -0.07000
C 	C 	0.61800 0.79200 0.05256 -0.09500
C 	C 	0.67951 0.79619 1.02624 0.01900
C 	C 	0.69100 0.78253 0.95485 -0.05500
C 	C 	0.75206 0.80964 -0.07214 0.37500
F 	F 	0.75645 0.81528 0.86412 -0.39200
F 	F 	0.76524 0.87730 -0.04817 -0.42500
C 	C 	0.79680 0.76085 -0.06326 0.36300
F 	F 	0.84691 0.79384 -0.09228 -0.39900
F 	F 	0.78741 0.69627 0.90570 -0.48500
C 	C 	0.65027 0.81805 0.91985 -0.04700
C 	C 	0.58977 0.81826 0.95459 -0.03100
H 	H 	0.61929 0.89861 0.01683 0.08100
H 	H 	0.61351 0.80021 0.10362 0.11500
H 	H 	0.59900 0.73685 0.04489 0.04000
H 	H 	0.69843 0.75626 1.04983 0.04400
H 	H 	0.69770 0.85002 0.03886 0.08100
H 	H 	0.68487 0.72388 0.94600 0.04900
H 	H 	0.64987 0.79090 0.87372 0.06800
H 	H 	0.66642 0.87425 0.91078 0.09500
H 	H 	0.56593 0.85061 0.92978 0.02300
H 	H 	0.56881 0.76317 0.95562 0.04900
C 	C 	0.79745 0.32665 0.08242 -0.08400
C 	C 	0.81047 0.26383 0.03645 -0.08900
C 	C 	0.76274 0.20306 0.04350 -0.02900
C 	C 	0.70376 0.22704 0.06982 -0.06300
C 	C 	0.67730 0.26412 0.02019 0.40600
F 	F 	0.69864 0.33453 0.01326 -0.40900
F 	F 	0.69101 0.23064 0.96304 -0.32300
C 	C 	0.61328 0.26426 0.03444 0.38700
F 	F 	0.59607 0.29300 0.98447 -0.31400
F 	F 	0.59772 0.30807 0.08595 -0.40500
C 	C 	0.70345 0.27147 0.13198 -0.05600
C 	C 	0.76145 0.30076 0.14366 -0.04100
H 	H 	0.77226 0.36071 1.06080 0.15300
H 	H 	0.81777 0.28368 0.98810 0.14900
H 	H 	0.84911 0.24164 0.04373 0.08000
H 	H 	0.77201 0.16370 0.07618 0.05200
H 	H 	0.76319 0.17357 -0.00164 0.12500
H 	H 	0.67760 0.17632 0.08179 0.07000
H 	H 	0.68341 0.23786 0.17190 0.05800
H 	H 	0.67831 0.31768 0.13318 0.10600
H 	H 	0.75638 0.34529 0.17878 0.06200
H 	H 	0.78167 0.25872 0.16348 0.05500
C 	C 	0.39196 0.05200 0.69172 -0.10400
C 	C 	0.33190 1.02583 0.68465 -0.02400
C 	C 	0.29293 0.03778 0.74621 -0.05600
C 	C 	0.28891 0.11886 0.76117 -0.08300
C 	C 	0.24289 0.15196 0.73436 0.44900
F 	F 	0.23961 0.22088 0.75909 -0.41100
F 	F 	0.25835 0.15804 0.67071 -0.59700
C 	C 	0.18443 0.11193 0.74988 0.37000
F 	F 	0.14570 0.15892 0.74466 -0.40200
F 	F 	0.17465 0.08987 0.81086 -0.39500
C 	C 	0.34537 0.16329 0.74002 -0.02300
C 	C 	0.39471 0.11880 0.73640 -0.06100
H 	H 	0.41555 1.06626 0.64483 0.03300
H 	H 	0.31934 1.05563 0.64729 0.04500
H 	H 	0.32816 0.96843 0.66993 0.05400
H 	H 	0.30947 0.01401 0.78420 0.08300
H 	H 	0.25285 0.00674 0.74637 0.08200
H 	H 	0.27877 0.12440 0.81267 0.11600
H 	H 	0.34964 0.20927 0.77299 0.08500
H 	H 	0.34810 0.18600 0.69333 0.07500
H 	H 	0.43364 0.15299 0.72081 -0.04400
H 	H 	0.39537 0.10240 0.78466 0.06300
C 	C 	-0.04163 0.62565 0.86478 -0.09200
C 	C 	0.00126 0.59240 0.81444 -0.05000
C 	C 	0.03407 0.65041 0.77014 -0.07800
C 	C 	0.99498 0.69236 0.73901 -0.01900
C 	C 	1.02694 0.74978 0.69276 0.42400
F 	F 	1.05696 0.79977 0.72486 -0.37700
F 	F 	1.06397 0.71565 0.64839 -0.40000
C 	C 	0.98812 0.78883 0.65828 0.43000
F 	F 	0.95328 0.82859 0.69997 -0.41700
F 	F 	0.95641 0.73865 0.62842 -0.41700
C 	C 	0.95319 0.72543 0.79082 -0.06200
C 	C 	0.92123 0.66792 0.83235 -0.03500
H 	H 	-0.01941 0.66430 0.89370 0.08100
H 	H 	0.03045 0.56511 0.83688 0.05400
H 	H 	-0.02036 0.55202 0.78667 0.09400
H 	H 	0.06352 0.62375 0.73387 0.10300
H 	H 	0.05892 0.68814 0.79717 0.12500
H 	H 	0.97188 0.65269 0.71168 0.10200
H 	H 	0.92085 0.74969 0.77165 0.13400
H 	H 	0.97436 0.76640 0.81882 0.13400
H 	H 	0.89114 0.69345 0.86805 0.12700
H 	H 	0.89740 0.63099 0.80334 0.08800
C 	C 	0.85016 0.02047 0.70362 -0.04800
C 	C 	0.80175 0.96235 0.70171 -0.03400
C 	C 	0.77618 0.93194 0.76590 -0.01800
C 	C 	0.78657 -0.01726 0.82067 -0.09300
C 	C 	0.75543 0.05256 0.82486 0.43000
F 	F 	0.79345 0.11232 0.81804 -0.36400
F 	F 	0.72478 0.05401 0.77747 -0.40900
C 	C 	0.71647 1.06286 0.88798 0.41400
F 	F 	0.70010 0.13103 0.88842 -0.32300
F 	F 	0.74520 1.05810 0.93644 -0.38400
C 	C 	0.85019 -0.00378 0.81896 -0.02300
C 	C 	0.88517 0.00545 0.75272 -0.05700
H 	H 	0.83294 0.07258 0.71629 0.11600
H 	H 	0.76910 -0.01453 0.68150 0.08400
H 	H 	0.81596 0.91711 0.67016 0.06800
H 	H 	0.79558 0.88171 0.77043 0.10200
H 	H 	0.73107 0.91707 0.76851 0.08000
H 	H 	0.76974 0.95263 0.86336 0.14700
H 	H 	0.86415 -0.05072 0.83944 0.10500
H 	H 	0.85980 0.04253 0.84973 0.12200
H 	H 	0.91791 0.05023 0.75407 0.08500
H 	H 	0.90638 -0.04390 0.73853 0.09800
C 	C 	0.34493 0.80021 0.93761 -0.04400
C 	C 	0.33624 0.73071 0.97338 -0.03200
C 	C 	0.28191 0.68886 0.96128 -0.00400
C 	C 	0.23037 0.73418 0.97106 -0.07400
C 	C 	0.20082 0.73707 0.91274 0.44000
F 	F 	0.21956 0.79970 0.88145 -0.38300
F 	F 	0.21474 0.68205 0.87035 -0.41200
C 	C 	0.13597 0.73484 0.92987 0.40300
F 	F 	0.11616 0.76270 0.88130 -0.35900
F 	F 	0.12071 0.77720 0.98241 -0.39300
C 	C 	0.24466 0.81006 0.99826 -0.02100
C 	C 	0.29887 0.84978 0.96363 -0.05800
H 	H 	0.34046 0.78532 0.88869 0.08200
H 	H 	0.37143 0.69752 0.95761 0.05500
H 	H 	0.33429 0.74265 0.02402 0.03500
H 	H 	0.27297 0.64250 -0.00739 0.02400
H 	H 	0.29038 0.66587 0.91340 0.09600
H 	H 	0.19957 0.70673 1.00812 0.09500
H 	H 	0.24933 0.80414 1.04753 0.09100
H 	H 	0.20996 0.84431 0.99977 0.12500
H 	H 	0.28972 0.88050 0.92476 0.12200
H 	H 	0.31396 0.88970 0.99695 0.12900
C 	C 	0.22426 0.22686 0.93434 -0.05400
C 	C 	0.27804 0.27839 0.92659 -0.03600
C 	C 	0.31396 0.27226 -0.02275 -0.05700
C 	C 	0.31807 0.19444 -0.00337 -0.09100
C 	C 	0.36420 0.15525 0.95240 0.53500
F 	F 	0.35125 0.08200 -0.04671 -0.46800
F 	F 	0.36531 0.17547 0.89192 -0.44900
C 	C 	0.42362 0.16987 -0.03089 0.29100
F 	F 	0.42449 0.14962 1.02860 -0.37600
F 	F 	0.43966 0.24238 -0.03366 -0.40100
C 	C 	0.26015 0.15050 0.00601 -0.09700
C 	C 	0.21170 0.19214 -0.00232 -0.06600
H 	H 	0.23091 0.18309 0.89867 0.10700
H 	H 	0.30323 0.26826 0.88008 0.09800
H 	H 	0.26823 0.33496 0.92689 0.01700
H 	H 	0.29528 0.30254 0.01940 0.00600
H 	H 	0.35572 0.29976 -0.03826 0.08600
H 	H 	0.33061 0.19901 0.04327 0.10800
H 	H 	0.25002 0.13193 0.05392 0.12600
H 	H 	0.25954 0.10252 0.97460 0.17000
H 	H 	0.17386 0.15420 0.00044 0.05900
H 	H 	0.20389 0.23313 0.03568 -0.00100
