data_crystal

_cell_length_a 12.92330
_cell_length_b 20.40380
_cell_length_c 22.95410
_cell_angle_alpha 100.95460
_cell_angle_beta  84.60900
_cell_angle_gamma 85.38480

_symmetry_space_group_name_	'P 1'
_symmetry_space_group_name_H-M	'P 1'

loop_
_symmetry_equiv_pos_as_xyz
  x,y,z

loop_
_atom_site_label
_atom_site_type_symbol
_atom_site_fract_x
_atom_site_fract_y
_atom_site_fract_z
_atom_site_charge
Gd	Gd	0.82507 0.32651 0.59812 1.75500
Gd	Gd	0.64433 0.18556 0.47558 1.73800
O 	O 	0.77489 0.12379 0.50785 -0.40100
O 	O 	0.82417 0.22019 0.54218 -0.32800
O 	O 	0.83302 0.25993 0.50578 -0.34700
O 	O 	0.76270 0.23913 0.42294 -0.34800
O 	O 	0.84593 0.39049 0.68287 -0.32300
O 	O 	0.93778 0.29243 0.65348 -0.34800
O 	O 	0.70020 0.38685 0.55984 -0.36400
C 	C 	0.91302 0.34573 0.69434 0.25200
O 	O 	0.64272 0.29059 0.53378 -0.28200
O 	O 	0.70273 0.28033 0.65178 -0.38400
C 	C 	0.82813 0.27157 0.45287 0.35900
O 	O 	0.63421 0.25033 0.56974 -0.33900
O 	O 	0.60870 0.12095 0.39256 -0.37600
O 	O 	0.50924 0.21335 0.43222 -0.35200
C 	C 	0.83030 0.15683 0.54329 0.32800
C 	C 	0.52495 0.15962 0.39175 0.28400
C 	C 	0.64348 0.24194 0.62350 0.34600
C 	C 	0.63907 0.35311 0.52902 0.29900
Gd	Gd	0.36681 0.79113 0.57589 1.74800
Gd	Gd	0.12641 0.66394 0.49508 1.74300
O 	O 	0.27869 0.60147 0.49811 -0.42500
O 	O 	0.31744 0.68650 0.55919 -0.34100
O 	O 	0.39756 0.75990 0.47559 -0.43800
O 	O 	0.23391 0.73984 0.47432 -0.42300
O 	O 	0.36424 0.80865 0.67492 -0.36100
O 	O 	0.49066 0.74451 0.62177 -0.35400
O 	O 	0.22222 0.85060 0.55700 -0.37400
C 	C 	0.44921 0.77213 0.67410 0.30800
O 	O 	0.10328 0.78245 0.51600 -0.29900
O 	O 	0.23720 0.72640 0.58996 -0.35700
C 	C 	0.32595 0.73395 0.44707 0.40100
O 	O 	0.08576 0.69217 0.59565 -0.40600
O 	O 	0.11653 0.64164 0.39718 -0.39700
O 	O 	0.97976 0.68653 0.45502 -0.31300
C 	C 	0.35023 0.63150 0.52251 0.36600
C 	C 	0.01934 0.66048 0.40175 0.23100
C 	C 	0.14829 0.72937 0.62106 0.37700
C 	C 	0.13216 0.84131 0.53888 0.36100
Gd	Gd	0.32502 0.23583 1.00322 1.19500
Gd	Gd	0.18312 0.27501 0.06923 1.27300
O 	O 	0.24877 0.37201 0.09313 -0.37700
O 	O 	0.36931 0.34036 0.01540 -0.33300
O 	O 	0.42203 0.21621 0.07394 -0.28700
O 	O 	0.27538 0.23214 0.13496 -0.26800
O 	O 	0.44807 0.17740 0.93271 -0.24300
O 	O 	0.44782 0.28024 0.94853 -0.23000
O 	O 	0.27030 0.13550 -0.00624 -0.35700
C 	C 	0.48356 0.22577 0.91445 0.29900
O 	O 	0.11694 0.17796 0.04052 -0.38400
O 	O 	0.23123 0.25575 0.93152 -0.38200
C 	C 	0.37434 0.21556 0.12478 0.29800
O 	O 	0.11541 0.31968 0.99802 -0.41500
O 	O 	0.17279 0.25764 0.16357 -0.18000
O 	O 	1.04251 0.30895 0.13686 -0.18500
C 	C 	0.31914 0.38628 0.05625 0.35700
C 	C 	0.07982 0.28533 0.17843 0.21700
C 	C 	0.15847 0.30286 0.94476 0.36000
C 	C 	0.17602 0.12841 0.00951 0.36000
Gd	Gd	0.81522 0.72088 1.00223 1.14700
Gd	Gd	0.69180 0.76962 0.07933 1.34300
O 	O 	0.76255 0.86642 0.08520 -0.30900
O 	O 	0.86990 0.82178 0.00435 -0.28400
O 	O 	0.92280 0.70731 0.07149 -0.28300
O 	O 	0.79936 0.74487 0.14536 -0.26700
O 	O 	0.93933 0.68167 0.92618 -0.22600
O 	O 	0.79106 0.71675 0.90590 -0.17400
O 	O 	0.75884 0.62100 0.00219 -0.28600
C 	C 	0.88569 0.69603 0.88617 0.28600
O 	O 	0.63052 0.66991 0.07105 -0.33000
O 	O 	0.69494 0.73489 0.93820 -0.28800
C 	C 	0.89367 0.72174 0.12725 0.29400
O 	O 	0.58569 0.79147 1.01282 -0.39700
O 	O 	0.69724 0.76778 0.17671 -0.18900
O 	O 	0.56150 0.81357 0.15133 -0.23700
C 	C 	0.83850 0.87096 0.04698 0.32500
C 	C 	0.60349 0.79280 0.19271 0.25900
C 	C 	0.60350 0.76316 0.95825 0.34900
C 	C 	0.67588 0.61768 0.03565 0.31200
C 	C 	0.89300 0.12347 0.58161 -0.01500
C 	C 	0.88187 0.14682 0.64353 -0.04600
C 	C 	0.93450 0.11154 0.67998 0.18200
Br	Br	0.91697 0.14276 0.76458 -0.04700
C 	C 	0.00014 0.05343 0.65478 -0.07600
C 	C 	0.01557 0.02962 0.59254 0.02900
C 	C 	0.09867 0.97135 0.56575 0.46500
F 	F 	0.15479 -0.01382 0.51625 -0.39800
F 	F 	0.16829 0.96683 0.60760 -0.41400
C 	C 	0.05263 0.90277 0.54688 0.33400
F 	F 	0.00926 0.90234 0.49395 -0.36300
F 	F 	-0.02603 0.89669 0.59029 -0.39300
C 	C 	-0.04109 0.06431 0.55630 -0.01500
H 	H 	0.83006 0.19083 0.66413 0.08200
H 	H 	0.03974 0.02740 0.68412 0.13300
H 	H 	-0.03206 0.04628 0.50836 0.10800
C 	C 	0.13657 0.06341 -0.01106 0.01700
C 	C 	0.20377 0.01252 0.95056 -0.08600
C 	C 	0.16769 0.95197 0.92711 0.16600
Br	Br	0.25900 0.88608 0.87207 -0.12200
C 	C 	0.06538 0.94042 0.94349 -0.04400
C 	C 	-0.00337 0.99002 0.98214 0.00100
C 	C 	0.89006 0.97219 1.00378 0.44700
F 	F 	0.82290 1.03011 1.02498 -0.34400
F 	F 	0.84855 0.93601 0.95541 -0.36400
C 	C 	0.89866 0.93155 0.05461 0.37500
F 	F 	0.86432 0.97308 0.10916 -0.30400
F 	F 	1.00166 0.90840 0.05760 -0.33800
C 	C 	0.03227 0.05240 0.00410 0.00100
H 	H 	0.28427 0.01992 0.93790 0.12600
H 	H 	0.03930 0.89237 0.92733 0.14600
H 	H 	0.97999 0.09167 0.03339 0.16700
C 	C 	0.46106 0.60327 0.50698 -0.09000
C 	C 	0.54403 0.64310 0.51430 0.01900
C 	C 	0.64673 0.61353 0.50874 0.10600
Br	Br	0.75593 0.66878 0.52822 -0.12900
C 	C 	0.66879 0.54396 0.49067 -0.00800
C 	C 	0.58754 0.50357 0.47701 -0.00500
C 	C 	0.60860 0.42858 0.45261 0.45100
F 	F 	0.56519 0.41530 0.39911 -0.35000
F 	F 	0.71465 0.41049 0.43885 -0.42500
C 	C 	0.56053 0.38541 0.49579 0.34100
F 	F 	0.51028 0.33645 0.46324 -0.36700
F 	F 	0.48569 0.42370 0.53863 -0.38300
C 	C 	0.48428 0.53418 0.48464 0.06800
H 	H 	0.53004 0.69685 0.52305 0.02800
H 	H 	0.74903 0.52206 0.48643 0.10700
H 	H 	0.42138 0.50333 0.47422 0.10700
C 	C 	0.33207 0.45662 0.05519 -0.06200
C 	C 	0.24265 0.50264 0.06330 0.03000
C 	C 	0.24926 0.56514 1.04787 0.09600
Br	Br	0.12518 0.61768 1.04038 -0.09900
C 	C 	0.34564 0.58417 1.02822 0.00700
C 	C 	0.43526 0.53790 1.01848 -0.02300
C 	C 	0.53769 0.55264 0.98873 0.40700
F 	F 	0.56606 0.50284 0.93826 -0.34600
F 	F 	0.52372 0.61279 -0.03103 -0.38500
C 	C 	0.62581 0.55356 0.03101 0.39500
F 	F 	0.70086 0.49970 0.00957 -0.31100
F 	F 	0.58674 0.54807 1.08814 -0.40300
C 	C 	0.42748 0.47424 0.03217 0.10000
H 	H 	0.16627 0.48739 0.07519 0.10400
H 	H 	0.34869 0.63332 1.01721 0.11300
H 	H 	0.49523 0.43745 0.02273 0.12700
C 	C 	0.89508 0.31931 0.43006 -0.09000
C 	C 	0.92751 0.37219 0.47085 0.09000
C 	C 	-0.00410 0.41521 0.45162 0.04100
Br	Br	0.03614 0.48820 0.50753 -0.24500
C 	C 	0.03677 0.40425 0.39181 0.02200
C 	C 	0.00749 0.35140 0.34968 -0.04500
C 	C 	0.06304 0.34047 0.28636 0.45000
F 	F 	0.05704 0.40152 0.26796 -0.39300
F 	F 	0.16749 0.32062 0.28864 -0.37200
C 	C 	0.02065 0.28873 0.23876 0.35600
F 	F 	-0.08426 0.30695 0.23639 -0.36700
F 	F 	1.03225 0.22546 0.25239 -0.33800
C 	C 	0.93377 0.30988 0.36918 0.12200
H 	H 	0.89948 0.38049 0.51781 -0.04000
H 	H 	0.09293 0.43673 0.37821 0.10700
H 	H 	0.90945 0.26859 0.33844 0.11900
C 	C 	0.95755 0.64764 0.35044 0.04100
C 	C 	0.85869 0.62441 0.35767 -0.04500
C 	C 	0.80379 0.60593 0.30838 0.15500
Br	Br	0.67087 0.57207 0.31884 -0.10500
C 	C 	0.84651 0.61139 0.25145 -0.01700
C 	C 	0.94571 0.63398 0.24310 0.03900
C 	C 	0.99166 0.64140 0.18171 0.43500
F 	F 	1.09855 0.62373 0.17651 -0.34800
F 	F 	0.95183 0.59630 0.13823 -0.38300
C 	C 	0.97071 0.71482 0.17191 0.39000
F 	F 	1.06342 0.73701 0.15171 -0.30200
F 	F 	-0.06625 0.75821 0.22536 -0.39500
C 	C 	1.00125 0.65137 0.29294 0.03100
H 	H 	0.82630 0.61755 0.40100 0.10100
H 	H 	0.80232 0.59799 0.21388 0.14100
H 	H 	1.07832 0.66819 0.28709 0.13300
C 	C 	0.14294 0.34645 0.90206 -0.03300
C 	C 	0.17884 0.41030 0.91433 -0.01900
C 	C 	0.18546 0.44929 0.87062 0.13600
Br	Br	0.24120 0.53402 0.88563 -0.11200
C 	C 	0.15431 0.42537 0.81477 -0.02200
C 	C 	0.11909 0.36137 0.80160 0.04300
C 	C 	0.07625 0.33878 0.74328 0.37300
F 	F 	1.11851 0.37168 0.70038 -0.35300
F 	F 	0.10308 0.27048 0.72311 -0.38800
C 	C 	0.95683 0.35418 0.75266 0.40800
F 	F 	0.92891 0.41939 0.78394 -0.34400
F 	F 	0.91311 0.31078 0.78527 -0.35300
C 	C 	0.11489 0.32151 0.84536 -0.00100
H 	H 	0.20720 0.42813 0.95672 0.06600
H 	H 	0.15663 0.45718 0.78199 0.14100
H 	H 	1.08977 0.27151 0.83553 0.16000
C 	C 	0.44600 0.14212 0.35115 0.00300
C 	C 	0.34453 0.13644 0.37593 -0.03300
C 	C 	0.26437 0.12635 0.33960 0.14800
Br	Br	0.12596 0.12042 0.37455 -0.14200
C 	C 	0.28491 0.12227 0.27811 -0.01600
C 	C 	0.38673 0.12710 0.25222 0.03600
C 	C 	0.40867 0.12604 0.18590 0.44200
F 	F 	0.49377 0.07949 0.16288 -0.34100
F 	F 	0.32456 0.10380 0.15691 -0.39200
C 	C 	0.43250 0.19642 0.17376 0.35900
F 	F 	0.53891 0.19620 0.15837 -0.31500
F 	F 	0.40405 0.24629 0.22426 -0.35000
C 	C 	0.46744 0.13660 0.28933 0.03900
H 	H 	0.32747 0.14064 0.42373 0.09200
H 	H 	0.22070 0.11651 0.25110 0.14900
H 	H 	0.54532 0.14273 0.27049 0.13000
C 	C 	0.51562 0.75602 0.92091 0.00200
C 	C 	0.41438 0.76050 0.95042 -0.05300
C 	C 	0.33042 0.74378 0.91892 0.12600
Br	Br	0.19483 0.74972 -0.03836 -0.03500
C 	C 	0.34511 0.72442 0.85682 -0.01300
C 	C 	0.44505 0.72119 0.82522 0.03700
C 	C 	0.45896 0.70480 0.75693 0.44200
F 	F 	0.53122 0.64899 0.73787 -0.34900
F 	F 	0.36537 0.68777 0.73573 -0.40300
C 	C 	0.49713 0.76457 0.73020 0.35400
F 	F 	0.60496 0.75537 0.71721 -0.33100
F 	F 	0.47198 0.82445 0.77115 -0.36700
C 	C 	0.53089 0.73575 0.85802 0.04200
H 	H 	0.40051 0.77501 -0.00140 0.14400
H 	H 	0.27717 0.71443 0.83364 0.14200
H 	H 	0.60862 0.73208 0.83458 0.14500
C 	C 	0.35000 0.70152 0.38393 -0.09600
C 	C 	0.33964 0.63337 0.36399 -0.00100
C 	C 	0.36287 0.60402 0.30366 0.11300
Br	Br	0.34329 0.51177 0.27684 -0.08100
C 	C 	0.39750 0.64247 0.26285 -0.00600
C 	C 	0.40874 0.71115 0.28217 0.01200
C 	C 	0.44003 0.75471 0.23811 0.43900
F 	F 	0.44968 0.71646 0.18052 -0.39000
F 	F 	0.35986 0.80534 0.24179 -0.34800
C 	C 	0.54364 0.78671 0.25041 0.37900
F 	F 	0.60638 0.74692 0.27857 -0.37900
F 	F 	0.52181 0.84956 0.28695 -0.34800
C 	C 	0.38589 0.73991 0.34309 0.06300
H 	H 	0.31270 0.60271 0.39451 0.05200
H 	H 	0.41330 0.61861 0.21615 0.14300
H 	H 	0.39365 0.79269 0.35862 0.10600
C 	C 	0.59181 0.19175 0.65148 -0.08600
C 	C 	0.54580 0.14045 0.61651 0.00300
C 	C 	0.49475 0.09424 0.64329 0.10600
Br	Br	0.43218 0.02423 0.59556 -0.16600
C 	C 	0.48647 0.10015 0.70521 -0.00900
C 	C 	0.52907 0.15234 0.74190 0.01900
C 	C 	0.50442 0.15891 0.80934 0.43900
F 	F 	0.39627 0.16241 0.82005 -0.39800
F 	F 	0.54550 0.09993 0.82382 -0.36500
C 	C 	0.54190 0.21894 0.85288 0.37200
F 	F 	0.52031 0.27847 0.83382 -0.37000
F 	F 	0.64807 0.20826 0.85622 -0.34200
C 	C 	0.58552 0.19656 0.71412 0.03800
H 	H 	0.54966 0.13610 0.56854 -0.00800
H 	H 	0.44395 0.06466 0.72505 0.13200
H 	H 	0.62255 0.23561 0.74066 0.12300
C 	C 	0.11564 0.77492 0.67916 -0.06600
C 	C 	0.14444 0.84052 0.69051 0.00700
C 	C 	0.10790 0.88454 0.74378 0.12400
Br	Br	0.15415 0.97198 0.76089 -0.12100
C 	C 	0.04247 0.86340 0.78648 -0.01400
C 	C 	0.01709 0.79682 0.77820 0.02200
C 	C 	-0.03701 0.77567 0.83204 0.40900
F 	F 	0.03017 0.78506 0.87570 -0.41400
F 	F 	0.87326 0.81938 0.85165 -0.34000
C 	C 	-0.06610 0.70272 0.82585 0.35400
F 	F 	0.02242 0.65755 0.80951 -0.37100
F 	F 	-0.13658 0.68923 0.78439 -0.36900
C 	C 	0.05065 0.75327 0.72312 0.04700
H 	H 	0.19539 0.85843 0.65881 0.05900
H 	H 	0.01455 0.89866 0.82743 0.12000
H 	H 	0.02903 0.70254 0.71460 0.11600
