data_crystal

_cell_length_a 23.30910
_cell_length_b 17.91840
_cell_length_c 21.43310
_cell_angle_alpha 90.80080
_cell_angle_beta  74.53760
_cell_angle_gamma 93.35100

_symmetry_space_group_name_	'P 1'
_symmetry_space_group_name_H-M	'P 1'

loop_
_symmetry_equiv_pos_as_xyz
  x,y,z

loop_
_atom_site_label
_atom_site_type_symbol
_atom_site_fract_x
_atom_site_fract_y
_atom_site_fract_z
_atom_site_charge
Mn	Mn	0.24932 0.38927 -0.06770 1.22800
Mn	Mn	0.15741 0.48393 0.86518 1.28200
Mn	Mn	0.75896 0.53386 0.98692 1.22300
Mn	Mn	0.85756 0.50149 0.07690 1.27300
Mn	Mn	0.01156 0.50989 -0.02148 1.25000
C 	C 	0.25559 0.30179 0.80675 0.09700
N 	N 	0.23220 0.35409 0.85032 -0.25000
N 	N 	0.19157 0.38548 0.82833 -0.19000
N 	N 	0.18882 0.35420 0.77301 -0.05800
N 	N 	0.22790 0.30141 0.75855 -0.10100
N 	N 	0.07115 0.42792 0.78975 -0.09800
N 	N 	0.08010 0.45574 0.84479 -0.20400
N 	N 	0.02918 0.46048 0.88915 -0.19700
N 	N 	-0.01461 0.43607 0.86482 -0.10400
C 	C 	0.01111 0.41532 0.80340 0.11800
C 	C 	0.12906 0.69147 0.94018 0.12400
N 	N 	0.12660 0.58252 0.90333 -0.19200
N 	N 	0.16156 0.64413 0.89765 -0.08500
N 	N 	0.07991 0.45312 0.00197 -0.22500
N 	N 	0.12696 0.43749 -0.04636 -0.20500
N 	N 	0.15936 0.38928 -0.02817 -0.20600
N 	N 	0.13273 0.36639 0.03066 -0.10800
N 	N 	0.07413 0.59294 0.94474 -0.20200
N 	N 	0.07430 0.66062 0.96929 -0.10000
C 	C 	0.08511 0.40867 0.05301 0.10100
N 	N 	0.75354 0.58333 0.07307 -0.25700
N 	N 	0.79601 0.57838 0.10360 -0.20000
N 	N 	0.77329 0.59049 0.16590 -0.07000
N 	N 	0.71664 0.60574 0.17673 -0.08800
N 	N 	0.91825 0.60216 0.15664 -0.10600
N 	N 	0.92527 0.56181 0.10312 -0.20500
N 	N 	0.98267 0.56253 0.07066 -0.17900
N 	N 	1.01375 0.60600 0.10285 -0.08300
N 	N 	0.96431 0.35222 -0.01824 -0.08800
N 	N 	0.95729 0.41837 0.01003 -0.19400
N 	N 	0.90734 0.41613 0.05560 -0.20800
N 	N 	0.87999 0.34915 0.05837 -0.09100
N 	N 	0.94270 0.56372 0.95049 -0.20900
N 	N 	0.88706 0.54694 0.98639 -0.19600
N 	N 	0.84742 0.56623 0.95681 -0.20800
N 	N 	0.87406 0.59992 0.90187 -0.12000
Cl	Cl	0.24373 0.50654 -0.10601 -0.75400
Cl	Cl	0.78604 0.43790 1.03863 -0.74000
C 	C 	0.70377 0.60069 0.11893 0.10300
C 	C 	0.97327 0.63133 0.15662 0.11400
C 	C 	0.91486 0.30967 0.01120 0.10700
C 	C 	0.93333 0.60097 0.89657 0.14900
Mn	Mn	0.50090 0.92473 0.24769 1.21700
Mn	Mn	0.51158 0.06303 0.13489 1.27700
Mn	Mn	0.47252 -0.02421 0.71415 1.21400
Mn	Mn	0.49309 0.87847 0.83872 1.29000
Mn	Mn	0.50592 -0.01479 -0.02058 1.25000
C 	C 	0.63802 -0.03065 0.20103 0.03400
N 	N 	0.58008 0.98093 0.20559 -0.22700
N 	N 	0.58062 0.04377 0.17400 -0.20700
N 	N 	0.63558 0.07386 0.15514 -0.05400
N 	N 	0.67248 0.02821 0.17029 -0.08300
N 	N 	0.60817 0.13722 0.05712 -0.29500
N 	N 	0.56912 0.09235 0.04784 -0.48800
N 	N 	0.57479 0.06397 -0.01010 -0.22300
N 	N 	0.59458 0.10956 1.03490 0.43000
C 	C 	0.65619 0.14477 0.01281 0.02500
C 	C 	0.35938 0.08944 0.08083 0.09300
N 	N 	0.44307 0.07363 0.09634 -0.21000
N 	N 	0.39047 0.09949 0.12550 -0.09300
N 	N 	0.51797 0.92485 0.05572 -0.21600
N 	N 	0.50862 0.95561 0.11318 -0.19200
N 	N 	0.49323 0.90466 0.15877 -0.20400
N 	N 	0.49150 0.83820 0.13348 -0.10800
N 	N 	0.44346 1.04793 0.03819 -0.17500
N 	N 	0.39178 1.05790 0.02650 -0.07600
C 	C 	0.50979 0.84928 0.06880 0.10700
N 	N 	0.40798 -0.09879 0.76298 -0.27300
N 	N 	0.41518 0.88288 0.81943 -0.19100
N 	N 	0.37204 0.90901 0.86611 -0.05300
N 	N 	0.33136 0.93429 0.84189 -0.08400
N 	N 	0.39678 0.81161 0.94273 -0.09400
N 	N 	0.44531 0.85739 0.93020 -0.20000
N 	N 	0.44048 0.90791 0.97584 -0.18500
N 	N 	0.38855 0.89773 0.01965 -0.09400
N 	N 	0.62151 -0.06878 0.92216 -0.11500
N 	N 	0.56766 -0.07801 0.91862 -0.21400
N 	N 	0.56822 0.88629 0.86424 -0.18300
N 	N 	0.62396 0.87345 0.82975 -0.08100
N 	N 	0.49122 0.03658 0.89660 -0.22100
N 	N 	0.48937 -0.00958 0.84743 -0.20300
N 	N 	0.47539 0.02482 0.80029 -0.20500
N 	N 	0.46504 0.09404 0.81659 -0.10900
Cl	Cl	0.45262 1.02826 0.23406 -0.72800
Cl	Cl	0.54025 -0.10005 0.73315 -0.79800
C 	C 	0.35125 0.92210 0.77799 0.08100
C 	C 	0.36163 0.83785 0.99810 0.11400
C 	C 	0.65832 0.90314 0.86723 0.15800
C 	C 	0.47408 0.10353 0.87574 0.11900
Mn	Mn	0.21217 0.11918 0.57273 1.21500
Mn	Mn	0.13818 0.98143 0.51133 1.29100
Mn	Mn	0.77069 0.98139 0.40877 1.21600
Mn	Mn	0.86338 0.11139 0.45519 1.27700
Mn	Mn	-0.00212 0.03565 0.48158 1.23400
C 	C 	0.20883 -0.00414 0.66158 0.03200
N 	N 	0.17925 0.02499 0.62274 -0.25600
N 	N 	0.16444 0.96794 0.58982 -0.19100
N 	N 	0.19861 0.91276 0.59230 -0.06400
N 	N 	0.22844 0.92983 0.63533 -0.07200
N 	N 	0.05204 0.86214 0.58236 -0.10200
N 	N 	0.05847 0.92386 0.54684 -0.20400
N 	N 	0.00708 0.94031 0.53581 -0.19700
N 	N 	0.96575 0.88793 0.56422 -0.06800
C 	C 	-0.00616 0.84006 0.59463 0.05700
C 	C 	0.14420 0.98596 0.32895 0.14700
N 	N 	0.12296 0.99352 0.42909 -0.19900
N 	N 	0.16621 0.97832 0.37903 -0.09800
N 	N 	0.04852 0.10196 0.53537 -0.22100
N 	N 	0.10001 0.07772 0.54079 -0.21000
N 	N 	0.12918 0.12850 0.56688 -0.21800
N 	N 	0.09783 0.18655 0.58481 -0.11500
N 	N 	0.07484 0.01008 0.41289 -0.21100
N 	N 	0.08677 0.00695 0.34850 -0.11700
C 	C 	0.04699 0.17152 0.56741 0.07100
N 	N 	0.80188 1.07688 0.35822 -0.24100
N 	N 	0.84018 0.12477 0.37367 -0.21300
N 	N 	0.85217 0.18215 0.33325 -0.04800
N 	N 	0.82497 0.16851 0.28690 -0.09900
N 	N 	0.95802 0.20723 0.37287 -0.09500
N 	N 	0.94553 0.15091 0.41410 -0.21000
N 	N 	0.99434 0.12713 0.42550 -0.18200
N 	N 	0.04090 0.16885 0.39183 -0.12200
N 	N 	0.90493 1.04668 0.61527 -0.07500
N 	N 	0.92114 1.06094 0.55170 -0.16800
N 	N 	0.88079 0.10111 0.53796 -0.22300
N 	N 	0.83901 0.11650 0.58964 -0.08900
N 	N 	0.94258 0.97847 0.42762 -0.20200
N 	N 	0.88977 1.00636 0.43174 -0.18900
N 	N 	0.85454 0.95856 0.41062 -0.20800
N 	N 	0.88343 0.89943 0.38661 -0.10700
Cl	Cl	0.22505 0.05125 0.47907 -0.77200
Cl	Cl	0.77000 1.05743 0.49596 -0.72700
C 	C 	0.79336 1.10269 0.30332 0.11600
C 	C 	1.01743 0.21724 0.35821 0.16300
C 	C 	0.85339 0.08298 0.63764 0.08700
C 	C 	0.93960 0.91229 0.39294 0.12100
C 	C 	1.00313 0.23232 0.58437 0.03400
C 	C 	0.96623 0.24833 0.54578 -0.10100
C 	C 	0.93789 0.31520 0.55177 0.14200
Br	Br	0.89055 0.33613 0.49451 -0.28400
C 	C 	0.94526 0.36790 0.59791 -0.09600
C 	C 	0.98081 0.35499 0.64077 0.04000
C 	C 	0.98723 0.41290 0.69261 0.04200
C 	C 	0.96081 0.48033 0.68677 -0.05500
C 	C 	0.90064 0.48564 0.72232 0.01300
C 	C 	0.86407 0.53630 0.70575 -0.04300
C 	C 	0.80382 0.53698 0.74019 -0.03700
C 	C 	0.77936 0.48600 0.79000 -0.01300
C 	C 	0.81496 0.43372 0.80587 -0.07500
C 	C 	0.87542 0.43373 0.77237 0.05800
C 	C 	-0.08710 0.38696 0.79139 -0.07100
C 	C 	-0.02594 0.38960 0.75854 -0.03200
C 	C 	1.00871 0.28592 0.63353 -0.01800
H 	H 	0.96148 0.21110 0.50904 0.05900
H 	H 	0.92228 0.41878 0.59980 0.07700
H 	H 	0.97825 0.51421 0.64375 0.05600
H 	H 	0.88215 0.57298 0.66507 0.04800
H 	H 	0.77505 0.57523 0.72774 0.04000
H 	H 	0.73265 0.48659 -0.18422 0.00600
H 	H 	0.79539 0.39297 0.84361 0.04900
H 	H 	-0.10248 0.36591 0.84010 0.05100
H 	H 	0.03668 0.27483 0.66504 0.03200
C 	C 	0.78609 1.04805 0.25610 0.00900
C 	C 	0.84033 1.01786 0.22380 -0.10900
C 	C 	0.84481 0.94143 0.22784 0.16500
Br	Br	-0.08348 0.89501 0.18888 -0.31000
C 	C 	0.79485 0.89719 0.25845 -0.16400
C 	C 	0.73727 0.92439 0.26688 0.01800
C 	C 	0.68902 0.87298 0.25229 -0.03100
C 	C 	0.70315 0.79761 0.24953 -0.05900
C 	C 	0.73604 0.77479 0.18839 0.01400
C 	C 	0.79188 0.74411 1.18016 -0.01300
C 	C 	0.82938 0.73516 1.11793 -0.01800
C 	C 	0.80798 0.74668 1.06420 -0.00500
C 	C 	0.75380 0.78028 0.07232 -0.06300
C 	C 	0.72050 0.80102 0.13395 0.01900
C 	C 	0.67862 0.85632 0.14264 -0.01600
C 	C 	0.66285 0.89508 0.20256 -0.02900
C 	C 	0.73322 1.00204 0.27132 -0.11000
H 	H 	0.88107 1.05366 0.20833 0.09600
H 	H 	0.80147 0.83970 0.26814 0.06700
H 	H 	0.71267 0.77383 0.29140 0.02500
H 	H 	0.80721 0.72875 1.22161 0.04800
H 	H 	0.87366 0.71560 1.11154 0.05500
H 	H 	0.83503 0.73302 1.01611 0.02500
H 	H 	0.74165 0.79554 0.03022 0.04700
H 	H 	0.66592 -0.12405 0.10067 0.00900
H 	H 	0.69012 1.02564 0.29110 0.03700
C 	C 	-0.01465 0.88829 0.33334 0.00100
C 	C 	0.00925 0.94265 0.28608 -0.07800
C 	C 	0.04038 0.92384 0.22334 0.15000
Br	Br	0.06987 1.00444 0.16426 -0.27000
C 	C 	0.04433 0.84850 0.20365 -0.09900
C 	C 	0.01553 0.79117 0.24691 0.06200
C 	C 	0.02992 0.71055 0.23082 -0.02800
C 	C 	0.06935 0.69060 0.26636 -0.04500
C 	C 	0.05502 0.62974 0.30872 0.02400
C 	C 	0.08764 0.61942 0.35386 -0.04300
C 	C 	0.06717 0.56647 0.40306 -0.02300
C 	C 	0.01684 0.51949 0.40450 -0.01200
C 	C 	-0.01420 0.52670 0.35765 -0.07800
C 	C 	0.00338 0.58379 0.31116 -0.00500
C 	C 	0.97147 0.59391 0.26563 -0.02200
C 	C 	0.98750 0.65256 0.22017 0.01200
C 	C 	-0.01264 0.81227 0.31246 -0.09600
H 	H 	0.00187 1.00110 0.29714 0.07600
H 	H 	0.06832 0.83453 0.15461 0.07200
H 	H 	0.10371 0.73156 0.27227 0.06200
H 	H 	0.12800 0.65338 0.35201 0.05900
H 	H 	0.09081 0.56155 0.43979 0.05200
H 	H 	0.00255 0.47661 0.44127 0.03900
H 	H 	0.94709 0.48950 0.35906 0.07700
H 	H 	0.93668 0.55231 0.26250 0.04400
H 	H 	0.96704 0.76951 0.34763 0.07500
C 	C 	0.18033 0.96131 0.26563 0.00400
C 	C 	0.21663 0.90127 0.26680 -0.07800
C 	C 	0.26701 0.89029 0.21626 0.14500
Br	Br	0.32145 0.81880 0.22646 -0.27400
C 	C 	0.28017 0.93649 0.16192 -0.09600
C 	C 	0.24438 0.99578 0.15942 0.03600
C 	C 	0.25461 1.04258 0.10141 0.04000
C 	C 	0.21135 1.03515 0.06757 -0.04700
C 	C 	0.20235 1.09380 0.03024 0.00200
C 	C 	0.15788 1.08657 0.99750 -0.01700
C 	C 	0.14653 1.14680 0.96322 -0.03600
C 	C 	0.18039 1.21393 0.96042 0.01300
C 	C 	0.22533 0.22202 0.99269 -0.11100
C 	C 	0.23734 1.16144 0.02692 0.09100
C 	C 	0.28550 0.16554 0.05486 -0.09300
C 	C 	0.29661 0.10414 0.08906 -0.03600
C 	C 	0.19471 1.00853 0.21186 -0.00900
H 	H 	0.20930 0.86819 0.31066 0.07200
H 	H 	0.31873 0.92701 0.12298 0.08700
H 	H 	0.18276 0.98474 0.07347 0.05800
H 	H 	0.13224 1.03449 0.99830 0.04700
H 	H 	0.11188 1.14145 0.93819 0.04900
H 	H 	0.17171 1.25913 0.93242 0.01500
H 	H 	0.25080 0.27497 0.99076 -0.03800
H 	H 	0.31696 0.21388 0.04588 0.04400
H 	H 	0.16947 0.05749 0.21236 0.03400
C 	C 	0.04856 0.28574 0.32574 -0.01500
C 	C 	0.08181 0.32959 0.35904 -0.08100
C 	C 	0.11109 0.39581 0.33237 0.13300
Br	Br	0.16801 0.44322 0.37194 -0.26200
C 	C 	0.10471 0.42136 0.27328 -0.10100
C 	C 	0.07486 0.37605 0.23549 0.03600
C 	C 	0.09884 0.38194 0.16313 0.00400
C 	C 	0.16023 0.36844 0.14754 -0.05100
C 	C 	0.20163 0.42615 0.11869 -0.00700
C 	C 	0.26308 0.41792 0.10590 -0.04900
C 	C 	0.30327 0.47602 0.07605 -0.09100
C 	C 	0.28232 0.54171 1.05806 0.02600
C 	C 	0.22122 0.55063 0.07136 -0.08900
C 	C 	0.18044 0.49439 0.10358 0.03600
C 	C 	0.11862 0.50167 0.11455 -0.04700
C 	C 	0.08190 0.43556 0.12177 -0.03200
C 	C 	0.04517 0.30838 0.26361 -0.05600
H 	H 	0.08527 0.31175 0.40596 0.06800
H 	H 	0.13103 0.47085 0.25224 0.08500
H 	H 	0.17524 0.32163 0.16950 0.04700
H 	H 	0.27974 0.36653 0.11838 0.03100
H 	H 	0.35073 0.46959 1.06603 0.05400
H 	H 	0.31346 0.58571 1.03352 0.03900
H 	H 	0.20576 0.60065 1.05525 0.08100
H 	H 	0.10551 0.55042 0.09453 0.04600
H 	H 	0.02384 0.27065 0.23545 0.04500
C 	C 	0.54986 0.79127 0.03496 0.00500
C 	C 	0.54306 0.75497 -0.02085 -0.08300
C 	C 	0.56706 0.68539 -0.03831 0.12400
Br	Br	0.55173 0.63584 -0.11232 -0.30200
C 	C 	0.59394 0.64827 0.00313 -0.10700
C 	C 	0.60083 0.68308 0.06008 0.01000
C 	C 	0.60177 0.63801 0.11792 0.01700
C 	C 	0.55176 0.64426 0.17176 -0.06800
C 	C 	0.53514 0.58879 0.21857 0.02500
C 	C 	0.48715 0.59826 0.27343 -0.05200
C 	C 	0.46852 0.54072 0.31868 -0.02300
C 	C 	0.49710 0.47341 0.30878 -0.02700
C 	C 	0.54580 0.46431 0.25475 -0.04500
C 	C 	0.56556 0.52227 0.20925 0.00700
C 	C 	0.61732 0.51753 0.15752 -0.03000
C 	C 	0.64116 0.58027 0.11770 -0.08700
C 	C 	0.58289 0.75637 0.07195 -0.05200
H 	H 	0.51566 0.77681 -0.04824 0.05000
H 	H 	0.60267 0.59007 -0.00502 0.03300
H 	H 	0.52243 0.69006 0.17526 0.04000
H 	H 	0.46420 0.65016 0.28124 0.03300
H 	H 	0.43190 0.54841 0.36137 0.03900
H 	H 	0.48205 0.42888 0.34399 0.03500
H 	H 	0.56754 0.41209 0.24860 0.03800
H 	H 	0.64402 0.46960 0.15531 0.03400
H 	H 	0.58684 0.78176 0.11671 0.03500
C 	C 	0.88754 0.25555 -0.02658 0.02100
C 	C 	0.92025 0.24123 0.90986 -0.08900
C 	C 	0.89010 0.23138 0.86214 0.15100
Br	Br	0.93130 0.21609 0.77489 -0.27400
C 	C 	0.82824 0.23413 0.87897 -0.11800
C 	C 	0.79782 0.21260 0.94200 0.07300
C 	C 	0.77636 0.13299 0.94373 -0.01500
C 	C 	0.82467 0.07928 0.88020 -0.06400
C 	C 	0.80944 -0.01803 0.86960 -0.12500
C 	C 	0.83463 -0.09000 0.81206 -0.03300
C 	C 	0.79846 0.81933 0.81857 -0.02400
C 	C 	0.73538 0.78469 0.88055 -0.01900
C 	C 	0.69582 -0.16580 0.94956 -0.07000
C 	C 	0.71328 -0.06899 0.96103 0.01900
C 	C 	0.68110 0.00034 1.01386 -0.02000
C 	C 	0.70798 0.09645 1.00424 0.00400
C 	C 	0.82514 0.23685 -0.00923 -0.08200
H 	H 	0.96827 0.24827 0.89608 0.08200
H 	H 	0.80504 0.23026 0.84159 0.09100
H 	H 	0.82298 0.02300 0.86595 0.13600
H 	H 	0.87295 -0.07902 0.77292 0.02800
H 	H 	0.81373 0.78356 0.77945 0.03700
H 	H 	0.71856 0.72852 0.87409 0.02500
H 	H 	0.65952 -0.19427 0.98198 0.04200
H 	H 	0.63841 -0.01613 0.04793 0.02400
H 	H 	0.79809 0.24262 0.04047 0.06500
C 	C 	0.30685 0.88308 0.75110 0.00100
C 	C 	0.31841 0.82000 0.71135 -0.08500
C 	C 	0.27102 0.77911 0.69580 0.13500
Br	Br	0.28836 0.69533 0.63907 -0.24400
C 	C 	0.21259 0.80357 0.71757 -0.08500
C 	C 	0.20222 0.86853 0.75604 0.02900
C 	C 	0.15518 0.91987 0.75500 0.03200
C 	C 	0.09622 0.89591 0.75910 -0.03800
C 	C 	0.05704 0.94888 0.74991 -0.03400
C 	C 	1.00493 0.92617 0.73290 0.01600
C 	C 	0.97501 0.97873 0.70796 -0.05600
C 	C 	0.99201 1.05471 0.70816 0.05000
C 	C 	1.03886 0.07895 0.73358 -0.10800
C 	C 	0.07449 1.02630 0.74951 0.08200
C 	C 	0.13297 0.04805 0.74977 -0.09700
C 	C 	0.17450 -0.00672 0.73132 -0.03400
C 	C 	0.24859 0.90252 0.77671 -0.02100
H 	H 	0.36352 0.80216 0.69350 0.06000
H 	H 	0.17798 0.77773 0.69820 0.08000
H 	H 	0.08316 0.83674 0.76296 0.03700
H 	H 	0.99147 0.86737 0.73188 0.03900
H 	H 	0.93971 0.95987 0.68667 0.06300
H 	H 	0.97059 1.09497 0.68647 0.05900
H 	H 	1.05163 0.13803 0.73322 0.07300
H 	H 	0.14819 0.10595 0.73895 0.01800
H 	H 	0.23993 -0.04854 0.80760 0.01900
C 	C 	-0.02573 0.63763 0.83445 -0.10300
C 	C 	1.03323 0.62050 0.80782 0.01900
C 	C 	1.06465 0.64431 0.74520 0.09600
Br	Br	1.14305 0.61163 0.71016 -0.22800
C 	C 	1.03780 0.68558 0.70611 -0.07300
C 	C 	0.97859 0.70596 0.72912 0.01300
C 	C 	0.94428 0.73558 0.68196 0.00100
C 	C 	0.88289 0.71371 0.69756 -0.05800
C 	C 	0.85022 0.71028 0.65130 0.01500
C 	C 	0.78775 0.69962 0.66959 -0.04700
C 	C 	0.75669 0.68661 0.62269 -0.02500
C 	C 	0.78754 0.68612 0.55717 -0.02400
C 	C 	0.84960 0.69890 0.53837 -0.05000
C 	C 	0.88113 0.71165 0.58546 0.02200
C 	C 	0.94219 0.73132 0.56804 -0.05300
C 	C 	0.96958 0.76098 0.61507 0.01200
C 	C 	0.94908 0.68461 0.79549 -0.00100
H 	H 	0.05462 0.58626 0.83385 0.00800
H 	H 	1.06242 0.69837 0.65666 0.07700
H 	H 	0.86040 0.69041 0.74427 0.03900
H 	H 	0.76296 0.70053 0.72017 0.04100
H 	H 	0.70866 0.67674 0.63728 0.04100
H 	H 	0.76306 0.67737 0.52099 0.03000
H 	H 	0.87253 0.70034 0.48723 0.04300
H 	H 	0.96380 0.74142 0.51713 0.05500
H 	H 	0.90488 0.70262 0.81752 0.03200
C 	C 	0.81211 0.08875 0.70288 0.03300
C 	C 	0.78931 0.16006 0.71866 -0.09000
C 	C 	0.73309 0.16693 0.76169 0.14000
Br	Br	0.70314 0.26271 0.78842 -0.26900
C 	C 	0.70061 0.10359 0.79146 -0.11000
C 	C 	0.72814 0.03517 0.78821 0.05600
C 	C 	0.71427 -0.00919 0.85022 -0.01800
C 	C 	0.72359 0.03711 0.90564 -0.02200
C 	C 	0.78614 0.00865 0.97589 0.01400
C 	C 	0.80523 0.05001 1.02807 -0.02200
C 	C 	0.84087 0.02349 0.06393 -0.03400
C 	C 	0.86308 -0.04635 0.05350 -0.04700
C 	C 	0.85178 -0.09243 1.00559 -0.03000
C 	C 	0.81399 -0.07141 0.96947 0.01300
C 	C 	0.79657 -0.12681 0.92006 -0.05900
C 	C 	0.72986 -0.08888 0.85505 -0.02600
C 	C 	0.78094 0.02597 0.73789 -0.07300
H 	H 	0.81386 0.20964 0.69373 0.08400
H 	H 	0.65843 0.11175 0.82702 0.07100
H 	H 	0.69969 0.08712 0.90322 0.04600
H 	H 	0.79385 0.10562 1.04448 0.05200
H 	H 	0.85349 0.05986 0.09939 0.04000
H 	H 	0.89237 -0.06411 0.08066 0.05800
H 	H 	0.87441 -0.14402 0.99487 0.03300
H 	H 	0.81477 0.81858 0.92317 0.05600
H 	H 	0.79714 -0.02879 0.72613 0.05200
C 	C 	0.29876 0.81140 1.02580 0.04400
C 	C 	0.28455 0.76741 0.08142 -0.11400
C 	C 	0.22635 0.73823 0.10774 0.14900
Br	Br	0.21008 0.67802 0.18392 -0.25500
C 	C 	0.18148 0.75100 0.07738 -0.12700
C 	C 	0.19450 0.79539 1.02139 0.06300
C 	C 	0.14662 0.81226 0.99043 0.00500
C 	C 	0.10938 0.87077 1.01381 -0.06700
C 	C 	0.06728 0.89066 0.98159 0.04300
C 	C 	0.02952 0.94889 1.00371 -0.06700
C 	C 	-0.00893 0.96998 0.96770 0.00500
C 	C 	-0.01715 0.92588 0.91611 -0.07400
C 	C 	0.01735 0.86492 0.89672 -0.02300
C 	C 	0.06363 0.85251 0.92468 -0.00000
C 	C 	0.10436 0.79990 0.89841 -0.03300
C 	C 	0.13866 0.77201 0.93601 -0.02000
C 	C 	0.25330 0.82629 0.99606 -0.07600
H 	H 	0.31943 0.75431 0.10335 0.09400
H 	H 	0.13716 0.72506 0.09662 0.07400
H 	H 	0.11266 0.89959 1.05713 0.06400
H 	H 	0.03079 0.97940 1.04731 0.07500
H 	H 	-0.03407 1.01912 0.98141 0.03600
H 	H 	0.94928 0.93822 0.89177 0.07700
H 	H 	0.00873 0.82818 0.85943 0.02800
H 	H 	0.10140 0.77060 0.85446 0.04500
H 	H 	0.26314 0.86144 0.95343 0.07200
C 	C 	0.31196 0.26287 0.80149 -0.03200
C 	C 	0.33816 0.23009 0.74149 -0.07900
C 	C 	0.39661 0.20870 0.72653 0.11900
Br	Br	0.43332 0.17174 0.64212 -0.37700
C 	C 	0.42901 0.21643 0.77224 -0.10100
C 	C 	0.40121 0.23344 0.83704 0.02500
C 	C 	0.43973 0.24104 0.88373 0.01300
C 	C 	0.45231 0.31597 0.89820 -0.06600
C 	C 	0.50089 0.33709 0.92195 0.02600
C 	C 	0.51990 0.41282 0.92247 -0.04500
C 	C 	0.57234 0.43353 0.93932 -0.02700
C 	C 	0.60480 0.37964 0.95866 -0.01900
C 	C 	0.58610 0.30409 0.95857 -0.04100
C 	C 	0.53471 0.28196 0.93879 0.01200
C 	C 	0.51997 0.20594 0.93018 -0.02500
C 	C 	0.47400 0.18274 0.90167 -0.03700
C 	C 	0.34349 0.26323 0.85014 -0.03700
H 	H 	0.31480 0.22579 0.70407 0.04300
H 	H 	0.47636 0.20781 0.75689 0.07000
H 	H 	0.42879 0.35960 0.88275 0.03400
H 	H 	0.49608 0.45544 0.90631 0.05500
H 	H 	0.58867 0.49110 0.93546 0.03600
H 	H 	0.64545 0.39626 0.97171 0.00800
H 	H 	0.61331 0.26303 0.97105 0.05300
H 	H 	0.55030 0.16580 -0.06359 0.02100
H 	H 	0.32535 0.28972 -0.10376 -0.05800
