data_crystal

_cell_length_a 30.44930
_cell_length_b 24.63760
_cell_length_c 28.61770
_cell_angle_alpha 87.81730
_cell_angle_beta  81.91200
_cell_angle_gamma 90.43710

_symmetry_space_group_name_	'P 1'
_symmetry_space_group_name_H-M	'P 1'

loop_
_symmetry_equiv_pos_as_xyz
  x,y,z

loop_
_atom_site_label
_atom_site_type_symbol
_atom_site_fract_x
_atom_site_fract_y
_atom_site_fract_z
_atom_site_charge
Mn	Mn	0.17887 0.39974 0.04976 1.25300
Mn	Mn	0.12039 0.47302 0.97441 1.28600
Mn	Mn	0.82881 0.57685 1.00599 1.24500
Mn	Mn	0.88770 0.49654 0.07580 1.27100
Mn	Mn	0.00354 0.48379 0.02349 1.25800
C 	C 	0.19386 0.33613 0.95918 0.15600
N 	N 	0.17363 0.37597 0.98411 -0.22600
N 	N 	0.15128 0.40320 0.95493 -0.18200
N 	N 	0.15736 0.38142 0.91298 -0.04200
N 	N 	0.18362 0.33866 0.91470 -0.07500
N 	N 	0.07350 0.43393 0.89810 -0.09900
N 	N 	0.06909 0.45705 0.93931 -0.20300
N 	N 	0.02668 0.45988 0.95702 -0.19000
N 	N 	0.00205 0.43779 0.92795 -0.07900
C 	C 	0.03161 0.42233 0.89127 0.13700
C 	C 	0.08273 0.62042 1.02112 0.14400
N 	N 	0.09104 0.54154 0.99632 -0.19400
N 	N 	0.11282 0.58769 0.99807 -0.08200
N 	N 	0.04751 0.43292 0.04947 -0.24000
N 	N 	0.09005 0.43335 0.03274 -0.20700
N 	N 	0.11217 0.40401 0.06073 -0.21000
N 	N 	0.08477 0.38150 0.09614 -0.10900
N 	N 	0.04977 0.54536 1.01716 -0.18700
N 	N 	0.04317 0.59467 1.03376 -0.07700
C 	C 	0.04439 0.39982 0.08888 0.11100
N 	N 	0.83845 0.59785 0.07140 -0.26000
N 	N 	0.85942 0.56639 0.09896 -0.19600
N 	N 	0.86012 0.58888 0.14007 -0.04600
N 	N 	0.84006 0.63653 0.13947 -0.08100
N 	N 	0.93720 0.52915 0.15180 -0.10000
N 	N 	0.94000 0.50914 0.10941 -0.20700
N 	N 	0.98183 0.50689 0.08997 -0.19400
N 	N 	1.00789 0.52553 0.11916 -0.09400
N 	N 	0.96105 0.37703 0.00781 -0.09500
N 	N 	0.95665 0.42331 0.02993 -0.18800
N 	N 	0.91529 0.42774 0.05080 -0.19400
N 	N 	0.89176 0.38437 0.04389 -0.08300
N 	N 	0.95929 0.53469 0.99784 -0.22400
N 	N 	0.91759 0.53786 1.01781 -0.17800
N 	N 	0.89513 0.56906 0.99153 -0.18800
N 	N 	0.92128 0.58851 0.95384 -0.09000
Cl	Cl	0.17683 0.48594 0.01729 -0.70400
Cl	Cl	0.82932 0.48866 1.03478 -0.68200
C 	C 	0.82697 0.64192 0.09630 0.13400
C 	C 	0.97961 0.53924 0.15746 0.12800
C 	C 	0.92062 0.35298 0.01738 0.15900
C 	C 	0.96154 0.56731 0.95817 0.18300
Mn	Mn	0.59574 0.97658 0.16896 1.23100
Mn	Mn	0.53797 0.07087 0.11020 1.27300
Mn	Mn	0.40652 0.04697 0.83926 1.23500
Mn	Mn	0.46348 0.95701 0.90228 1.28700
Mn	Mn	0.49952 0.01588 0.00590 1.25800
C 	C 	0.66837 0.05705 0.12240 0.11300
N 	N 	0.62538 1.04407 0.13608 -0.23300
N 	N 	0.60288 0.08210 0.11648 -0.19600
N 	N 	0.63044 0.11863 0.09314 -0.03900
N 	N 	0.67178 0.10411 0.09625 -0.06400
N 	N 	0.57160 0.15057 0.03347 -0.09400
N 	N 	0.54610 0.10723 0.04511 -0.20400
N 	N 	0.53468 0.08597 0.00682 -0.20700
N 	N 	0.55384 0.11371 0.96878 -0.06900
C 	C 	0.57595 0.15429 -0.01393 0.08200
C 	C 	0.40477 0.05401 0.11719 0.12100
N 	N 	0.47441 0.05613 0.10378 -0.20400
N 	N 	0.44111 0.06770 0.13619 -0.09600
N 	N 	0.54168 0.97751 0.04597 -0.22000
N 	N 	0.55295 0.99780 0.08457 -0.18200
N 	N 	0.57467 0.96163 0.10718 -0.19700
N 	N 	0.57994 0.91669 0.08363 -0.10300
N 	N 	0.45970 1.03638 0.06640 -0.18300
N 	N 	0.41573 1.03464 0.07341 -0.08400
C 	C 	0.55950 0.92690 0.04526 0.14500
N 	N 	0.37950 -0.02403 0.86729 -0.25600
N 	N 	0.40000 0.94204 0.89333 -0.17600
N 	N 	0.37868 0.89475 0.89878 -0.01700
N 	N 	0.34348 0.89744 0.87606 -0.05400
N 	N 	0.43484 0.87458 0.97961 -0.07200
N 	N 	0.45370 0.92265 0.96802 -0.19700
N 	N 	0.46511 0.94512 1.00575 -0.17600
N 	N 	0.45430 0.91238 0.04336 -0.11600
N 	N 	0.58178 0.01214 0.93568 -0.07600
N 	N 	0.53964 -0.00292 0.94578 -0.19300
N 	N 	0.52659 0.97494 0.90871 -0.18800
N 	N 	0.55939 0.97551 0.87312 -0.08200
N 	N 	0.45694 0.05271 0.96483 -0.22600
N 	N 	0.44511 0.02945 0.92747 -0.19700
N 	N 	0.42220 0.06316 0.90381 -0.19400
N 	N 	0.41716 0.10967 0.92501 -0.08200
Cl	Cl	0.53254 1.02709 0.18217 -0.72600
Cl	Cl	0.47095 -0.00029 0.82958 -0.74900
C 	C 	0.34483 0.94814 0.85611 0.16900
C 	C 	0.43513 0.86895 1.02668 0.18100
C 	C 	0.59375 0.99822 0.89059 0.14300
C 	C 	0.43839 0.10278 0.96326 0.14000
Mn	Mn	0.17356 0.09072 0.57803 1.22000
Mn	Mn	0.14287 0.98216 0.51628 1.28300
Mn	Mn	0.87724 0.87951 0.42823 1.23600
Mn	Mn	0.90994 -0.00824 0.48346 1.27800
Mn	Mn	0.02624 -0.01224 0.49991 1.26700
C 	C 	0.17407 -0.00817 0.64876 0.11700
N 	N 	0.17221 0.01354 0.60515 -0.26000
N 	N 	0.16501 0.97199 0.57946 -0.18300
N 	N 	0.16490 0.92612 0.60490 -0.04200
N 	N 	0.17006 0.93723 0.64866 -0.05900
N 	N 	0.10507 0.87863 0.56034 -0.09100
N 	N 	0.09825 0.92105 0.53282 -0.20000
N 	N 	0.05544 0.92544 0.53069 -0.20000
N 	N 	1.03320 0.88617 0.55681 -0.07900
C 	C 	0.06445 0.85724 0.57518 0.14700
C 	C 	0.11680 0.98968 0.38047 0.20400
N 	N 	0.12084 0.99332 0.45333 -0.18000
N 	N 	0.14584 0.98863 0.41208 -0.09100
N 	N 	0.05643 0.04063 0.53888 -0.23100
N 	N 	0.09858 0.03675 0.54449 -0.19200
N 	N 	0.11048 0.07851 0.56747 -0.20100
N 	N 	0.07672 0.11116 0.57822 -0.09900
N 	N 	0.07855 -0.00473 0.44756 -0.19700
N 	N 	0.07469 -0.00700 0.40224 -0.08100
C 	C 	0.04278 0.08691 0.56077 0.15300
N 	N 	0.87503 0.95555 0.39973 -0.24200
N 	N 	0.88783 -0.00122 0.42022 -0.18600
N 	N 	0.87711 0.04343 0.39752 -0.02300
N 	N 	0.85699 0.02957 0.36133 -0.05500
N 	N 	0.94545 0.09955 0.44440 -0.08300
N 	N 	0.95413 0.05307 0.46562 -0.19400
N 	N 	0.99676 0.05040 0.46935 -0.18000
N 	N 	0.01764 0.09491 0.45043 -0.09700
N 	N 	0.97759 0.96532 0.59637 -0.05600
N 	N 	0.97398 0.98000 0.55223 -0.17900
N 	N 	0.93177 -0.01896 0.54638 -0.19900
N 	N 	0.90642 -0.03372 0.58632 -0.06700
N 	N 	0.99611 0.93386 0.46117 -0.22500
N 	N 	0.95387 0.93712 0.45589 -0.18200
N 	N 	0.94151 0.89424 0.43463 -0.18900
N 	N 	0.97526 0.86127 0.42464 -0.08300
Cl	Cl	0.19062 0.05429 0.50441 -0.73600
Cl	Cl	0.86198 0.92005 0.49915 -0.70700
C 	C 	0.85582 0.97464 0.36324 0.17000
C 	C 	0.98533 0.12493 0.43495 0.21800
C 	C 	0.93548 -0.04279 0.61721 0.14500
C 	C 	1.00952 0.88641 0.44091 0.19500
C 	C 	0.99656 0.10926 0.56696 -0.05400
C 	C 	-0.01603 0.13104 0.61589 -0.11600
C 	C 	0.96814 0.18435 0.62145 0.27400
F 	F 	0.96354 0.21701 0.58319 -0.39100
C 	C 	-0.04298 0.20464 0.66659 0.19700
F 	F 	0.94213 0.25626 0.67081 -0.36200
C 	C 	-0.03793 0.17237 0.70698 -0.06800
C 	C 	-0.04921 0.19397 0.75587 -0.04400
C 	C 	-0.00781 0.21579 0.77404 0.04600
O 	O 	0.00294 0.26954 0.75446 -0.18200
C 	C 	0.00715 0.30994 0.78697 0.16200
C 	C 	-0.02475 0.31683 0.82686 -0.08700
C 	C 	-0.01772 0.35523 0.85989 0.01700
C 	C 	0.02089 0.38773 0.85331 -0.02200
C 	C 	0.05138 0.38288 0.81209 0.02000
C 	C 	0.04419 0.34473 0.77894 -0.08800
C 	C 	-0.02161 0.11951 0.70150 0.21600
F 	F 	-0.01433 0.08858 0.73984 -0.36800
C 	C 	-0.01160 0.09862 0.65658 0.24200
F 	F 	0.00418 0.04740 0.65285 -0.40000
H 	H 	0.97195 0.07804 0.56143 0.05800
H 	H 	0.99527 0.14174 0.53927 0.09400
H 	H 	-0.07437 0.22643 0.75632 0.09100
H 	H 	-0.06455 0.16079 0.78042 0.09300
H 	H 	0.02089 0.18918 0.76342 0.06200
H 	H 	-0.01321 0.21368 0.81334 0.03700
H 	H 	-0.05450 0.29172 0.83298 0.07900
H 	H 	-0.04144 0.35781 0.89150 0.08000
H 	H 	0.08122 0.40784 0.80600 0.05100
H 	H 	0.06842 0.34068 0.74779 0.08300
C 	C 	0.83045 0.94022 0.33416 -0.07700
C 	C 	0.84492 0.95113 0.28211 -0.04500
C 	C 	0.82414 -0.00833 0.25749 0.19600
F 	F 	0.79273 0.02344 0.28079 -0.38900
C 	C 	0.83474 0.99889 0.20854 0.27400
F 	F 	0.81332 0.03763 0.18576 -0.41100
C 	C 	0.86603 0.96531 0.18324 -0.08500
C 	C 	0.87514 0.97033 0.12996 -0.03400
C 	C 	0.85510 0.92226 0.10680 0.04100
O 	O 	0.81072 0.90863 0.12840 -0.20200
C 	C 	0.77646 0.94632 0.12550 0.18300
C 	C 	0.77921 0.98999 0.09187 -0.09600
C 	C 	0.74444 1.02661 0.09214 0.07500
C 	C 	0.70576 1.01983 0.12497 -0.05500
C 	C 	0.70244 0.97563 0.15765 0.03500
C 	C 	0.73761 0.93941 0.15794 -0.10400
C 	C 	0.88789 0.92597 0.20808 0.25200
F 	F 	0.91888 0.89375 0.18469 -0.38000
C 	C 	0.87751 0.91904 0.25715 0.22800
F 	F 	0.89864 0.88023 0.28020 -0.39800
H 	H 	0.83471 0.89660 0.34375 0.02400
H 	H 	0.79452 -0.05144 0.34323 0.06900
H 	H 	0.86195 1.00898 0.11682 0.09200
H 	H 	0.91156 0.97238 0.11854 0.09200
H 	H 	0.87594 0.88612 0.11104 0.07800
H 	H 	0.85668 0.93006 0.06811 0.03800
H 	H 	0.80777 0.99628 0.06517 0.08500
H 	H 	0.74748 0.05969 0.06584 0.05100
H 	H 	0.67290 0.96930 0.18317 -0.07100
H 	H 	0.73484 0.90591 0.18387 0.07200
C 	C 	0.05509 0.86228 0.43914 -0.12200
C 	C 	0.06156 0.81106 0.41168 -0.06000
C 	C 	0.06139 0.81298 0.36254 0.22300
F 	F 	0.05037 0.85935 0.34009 -0.38200
C 	C 	0.07349 0.76748 0.33607 0.24600
F 	F 	0.07353 0.77082 0.28861 -0.37900
C 	C 	0.08599 0.71926 0.35834 -0.08800
C 	C 	0.10176 0.67098 0.32989 -0.02000
C 	C 	0.06734 0.62485 0.33660 0.00300
O 	O 	1.02799 0.64168 0.31820 -0.16800
C 	C 	1.01753 0.61592 0.27811 0.18300
C 	C 	0.05001 0.60135 0.24073 -0.10900
C 	C 	0.03770 0.57597 0.20162 0.00400
C 	C 	0.99281 0.56564 0.19876 -0.02200
C 	C 	0.96038 0.58218 0.23514 0.02000
C 	C 	0.97275 0.60742 0.27424 -0.09100
C 	C 	0.08487 0.71684 0.40763 0.23900
F 	F 	0.09710 0.67100 0.43003 -0.39400
C 	C 	0.07254 0.76211 0.43410 0.21900
F 	F 	0.07270 0.75839 0.48156 -0.39500
H 	H 	0.06141 0.85305 0.47538 0.10000
H 	H 	0.08062 0.89202 0.42315 0.08000
H 	H 	0.10921 0.68248 0.29167 0.08700
H 	H 	0.13328 0.65625 0.34099 0.07800
H 	H 	1.05835 0.61373 0.37472 0.10200
H 	H 	0.08216 0.58781 0.32020 0.04300
H 	H 	0.08480 0.60998 0.24134 0.07400
H 	H 	0.06325 0.56476 0.17350 0.03800
H 	H 	0.92543 0.57586 0.23332 0.04800
H 	H 	0.94738 0.61994 0.30200 0.08700
C 	C 	0.12811 0.97020 0.33133 -0.07200
C 	C 	0.13449 0.01273 0.29129 -0.06100
C 	C 	0.14886 -0.00580 0.24584 0.22100
F 	F 	0.15537 0.94038 0.23919 -0.35500
C 	C 	0.15775 0.03055 0.20707 0.24800
F 	F 	0.17350 0.01105 0.16426 -0.39000
C 	C 	0.15217 0.08651 0.21275 -0.07800
C 	C 	0.16713 0.12628 0.17199 -0.03400
C 	C 	0.20989 0.15652 0.17896 0.04400
O 	O 	0.23677 0.12325 0.20552 -0.18800
C 	C 	0.27696 0.10398 0.18234 0.16700
C 	C 	0.28218 0.08637 0.13560 -0.09300
C 	C 	0.32330 0.06746 0.11459 0.02000
C 	C 	0.35955 0.06608 0.13998 -0.03500
C 	C 	0.35328 0.08078 0.18739 0.02000
C 	C 	0.31227 0.09896 0.20837 -0.09600
C 	C 	0.13591 0.10527 0.25762 0.24500
F 	F 	0.12956 0.15917 0.26373 -0.39200
C 	C 	0.12721 0.06888 0.29672 0.23700
F 	F 	0.11211 0.08913 0.33935 -0.38100
H 	H 	0.10161 -0.05844 0.32465 0.12300
H 	H 	0.15911 0.94642 0.33012 0.10400
H 	H 	0.17322 0.10508 0.13816 0.08400
H 	H 	0.14040 0.15595 0.16822 0.07200
H 	H 	0.20088 0.19319 0.19942 0.06300
H 	H 	0.22791 0.17150 0.14428 0.02300
H 	H 	0.25467 0.08714 0.11546 0.09000
H 	H 	0.32702 0.05533 0.07829 0.04800
H 	H 	0.38038 0.07914 0.20817 0.04600
H 	H 	0.30821 0.11060 0.24482 0.08400
C 	C 	-0.00703 0.17950 0.41010 -0.10900
C 	C 	-0.01624 0.18300 0.35915 -0.04600
C 	C 	-0.01697 0.23508 0.33732 0.22300
F 	F 	-0.00950 0.27986 0.36146 -0.38300
C 	C 	-0.02484 0.24179 0.29051 0.25100
F 	F 	-0.02359 0.29262 0.27052 -0.40300
C 	C 	-0.03284 0.19655 0.26434 -0.09200
C 	C 	-0.04057 0.20369 0.21334 -0.02200
C 	C 	-0.08689 0.22636 0.20828 0.00600
O 	O 	0.91132 0.28444 0.21098 -0.16000
C 	C 	0.93892 0.31646 0.17667 0.18700
C 	C 	-0.04667 0.29939 0.13061 -0.12500
C 	C 	-0.01399 0.32897 0.10098 0.00800
C 	C 	1.00351 0.37706 0.11575 -0.03800
C 	C 	0.98783 0.39547 0.16063 0.01900
C 	C 	0.95483 0.36614 0.19029 -0.08900
C 	C 	-0.03140 0.14428 0.28560 0.24600
F 	F 	-0.03813 0.09954 0.26110 -0.38700
C 	C 	-0.02255 0.13734 0.33213 0.23300
F 	F 	-0.01913 0.08582 0.34957 -0.38100
H 	H 	0.02789 0.19256 0.41066 0.11500
H 	H 	-0.02871 0.20856 0.43101 0.10600
H 	H 	-0.01371 0.22970 0.19366 0.07300
H 	H 	-0.03775 0.16407 0.19599 0.08400
H 	H 	0.88839 0.20808 0.23691 0.09000
H 	H 	-0.09761 0.21333 0.17490 0.04900
H 	H 	-0.05886 0.26228 0.11789 0.07300
H 	H 	-0.00082 0.31291 0.06722 0.03200
H 	H 	1.00272 0.43080 0.17372 0.04700
H 	H 	0.94385 0.38015 0.22536 0.11000
C 	C 	0.56536 0.89037 1.00431 -0.07000
C 	C 	0.61435 0.88308 0.98614 -0.06600
C 	C 	0.62949 0.83191 0.97117 0.22400
F 	F 	0.60061 0.78957 0.97164 -0.38800
C 	C 	0.67458 0.82364 0.95598 0.24500
F 	F 	0.68803 0.77339 0.94278 -0.39600
C 	C 	0.70552 0.86649 0.95523 -0.09000
C 	C 	0.75449 0.85751 0.94066 -0.00300
C 	C 	0.78113 0.86280 -0.01795 0.01200
O 	O 	0.75808 0.83741 0.02453 -0.19400
C 	C 	0.77565 0.78903 0.04112 0.14900
C 	C 	0.79182 0.74796 1.01067 -0.09500
C 	C 	0.80767 0.69970 1.02879 0.07700
C 	C 	0.80758 0.69147 0.07760 -0.12000
C 	C 	0.79038 0.73190 0.10809 0.04700
C 	C 	0.77401 0.77996 0.08990 -0.10900
C 	C 	0.69054 0.91783 0.96918 0.24800
F 	F 	0.71967 -0.04011 0.96889 -0.42200
C 	C 	0.64565 0.92620 0.98445 0.21700
F 	F 	0.63358 0.97623 0.99934 -0.40100
H 	H 	0.54806 0.90529 0.97526 0.06000
H 	H 	0.54948 0.85075 1.01690 0.09800
H 	H 	0.76028 0.81682 0.92585 0.08100
H 	H 	0.76741 0.88755 0.91197 0.07400
H 	H 	0.78599 0.90638 -0.01132 0.07200
H 	H 	0.81497 0.84634 -0.02779 0.03400
H 	H 	0.79189 0.75279 0.97299 0.08200
H 	H 	0.82051 0.66923 1.00444 -0.08800
H 	H 	0.78936 0.72625 0.14594 0.03800
H 	H 	0.76046 0.81063 0.11377 0.08000
C 	C 	0.90651 0.30459 -0.00736 -0.06600
C 	C 	0.86151 0.31410 -0.02297 -0.11300
C 	C 	0.82526 0.27938 -0.00642 0.24800
F 	F 	0.83068 0.23417 0.02071 -0.39800
C 	C 	0.78279 0.29163 -0.01688 0.19500
F 	F 	0.74830 0.25798 0.00034 -0.39800
C 	C 	0.77586 0.33864 0.95580 -0.04100
C 	C 	0.72969 0.35478 0.94772 -0.04700
C 	C 	0.72074 0.34255 0.89763 0.04400
O 	O 	0.71783 0.28533 0.89100 -0.18700
C 	C 	0.68037 0.25527 0.91306 0.17600
C 	C 	0.64178 0.27876 0.93718 -0.10600
C 	C 	0.60699 0.24582 0.95991 0.04900
C 	C 	0.60942 0.18930 0.95769 -0.01300
C 	C 	0.64679 0.16589 0.93255 0.01800
C 	C 	0.68197 0.19859 0.91061 -0.08100
C 	C 	0.81228 0.37230 0.93794 0.21700
F 	F 	0.80647 0.41831 0.91200 -0.39600
C 	C 	0.85469 0.36000 0.94811 0.27500
F 	F 	0.88868 0.39475 0.93188 -0.39800
H 	H 	0.93120 0.29702 -0.03874 0.06800
H 	H 	0.90595 0.26857 0.01722 0.09200
H 	H 	0.70449 0.33434 0.97452 0.09200
H 	H 	0.72573 0.39905 0.95303 0.08000
H 	H 	0.74851 0.35956 0.87175 0.07800
H 	H 	0.69060 0.36357 0.88900 0.03800
H 	H 	0.63826 0.32217 0.93955 0.07300
H 	H 	0.57834 0.26438 -0.02044 0.00500
H 	H 	0.64946 0.12221 0.93181 0.05400
H 	H 	0.71112 0.17963 0.89237 0.08500
C 	C 	0.31810 0.96704 0.81876 -0.08600
C 	C 	0.26954 0.97089 0.83746 -0.07100
C 	C 	0.23778 0.94201 0.81673 0.23400
F 	F 	0.25041 0.90743 0.78163 -0.38800
C 	C 	0.19257 0.94974 0.83098 0.23500
F 	F 	0.16281 0.92227 0.80932 -0.39300
C 	C 	0.17830 0.98666 0.86613 -0.07300
C 	C 	0.12960 0.99904 0.87838 -0.04400
C 	C 	0.11875 1.05890 0.86686 0.06800
O 	O 	0.14913 0.08408 0.82905 -0.19600
C 	C 	0.15188 0.06450 0.78306 0.15200
C 	C 	0.11973 1.02983 0.76864 -0.07600
C 	C 	0.12689 1.00779 0.72412 0.06400
C 	C 	0.16531 0.02122 0.69258 -0.08800
C 	C 	0.19604 0.05827 0.70541 0.00800
C 	C 	0.18931 0.07960 0.75051 -0.10100
C 	C 	0.21004 1.01368 0.88833 0.24400
F 	F 	0.19719 1.04836 0.92326 -0.37600
C 	C 	0.25527 1.00648 0.87365 0.23200
F 	F 	0.28523 1.03525 0.89398 -0.40600
H 	H 	0.33029 1.00789 0.80457 0.01200
H 	H 	0.32405 0.93907 0.78907 0.09600
H 	H 	0.10909 0.97221 0.85958 0.09400
H 	H 	0.11925 0.98944 0.91664 0.09300
H 	H 	0.12080 0.08224 0.89892 0.06600
H 	H 	0.08396 1.06261 0.85971 0.04600
H 	H 	0.08958 1.01846 0.79160 0.09700
H 	H 	0.10264 0.97938 0.71447 0.06700
H 	H 	0.22595 0.06875 0.68147 -0.00200
H 	H 	0.21410 0.10665 0.76082 0.07300
C 	C 	1.00181 0.57777 0.92185 -0.10800
C 	C 	0.99518 0.62781 0.89163 -0.05800
C 	C 	0.98301 0.62330 0.84629 0.22600
F 	F 	0.98025 0.57390 0.82732 -0.37900
C 	C 	0.97203 0.66963 0.82082 0.24400
F 	F 	0.96002 0.66406 0.77731 -0.38300
C 	C 	0.97312 0.72114 0.84023 -0.08300
C 	C 	0.96051 0.77115 0.81333 -0.02700
C 	C 	1.00167 0.80397 0.79190 0.03300
O 	O 	1.03097 0.77060 0.76189 -0.17600
C 	C 	1.03753 0.78525 0.71355 0.20300
C 	C 	1.00225 0.79999 0.68899 -0.10700
C 	C 	1.01074 0.81869 0.64194 0.05700
C 	C 	0.05454 0.82306 0.61881 -0.05000
C 	C 	0.08925 0.80364 0.64216 0.04600
C 	C 	0.08061 0.78431 0.68909 -0.11700
C 	C 	0.98630 0.72571 0.88507 0.23800
F 	F 	0.98761 0.77494 0.90460 -0.38800
C 	C 	0.99721 0.67947 0.91055 0.22500
F 	F 	1.00843 0.68478 0.95445 -0.39200
H 	H 	1.03171 0.58406 0.93893 0.08700
H 	H 	1.00759 0.54183 0.89984 0.10800
H 	H 	0.94150 0.76005 0.78464 0.08700
H 	H 	0.93837 0.79675 0.83738 0.08100
H 	H 	1.01956 0.81817 0.82049 0.09400
H 	H 	0.99139 0.84128 0.77332 0.05700
H 	H 	0.96837 0.79881 0.70653 0.08700
H 	H 	0.98330 0.83296 0.62469 0.04300
H 	H 	0.12333 0.80638 0.62513 0.05500
H 	H 	0.10783 0.77145 0.70731 0.10400
C 	C 	0.92392 0.92943 0.66479 -0.02100
C 	C 	0.89709 -0.03526 0.69966 -0.10400
C 	C 	0.85115 0.96922 0.69974 0.25000
F 	F 	0.83115 0.94514 0.66626 -0.38400
C 	C 	0.82506 0.99577 0.73581 0.24800
F 	F 	0.78043 0.99465 0.73685 -0.38400
C 	C 	0.84464 0.02030 0.77165 -0.09300
C 	C 	0.81617 0.04469 0.81321 -0.05100
C 	C 	0.79074 0.09538 0.79939 0.04500
O 	O 	0.75183 0.08158 0.77926 -0.16700
C 	C 	0.71464 0.05802 0.80830 0.16900
C 	C 	0.71126 0.05094 0.85789 -0.10900
C 	C 	0.67255 1.02937 0.88417 0.02600
C 	C 	0.63626 1.01478 0.86197 -0.01500
C 	C 	0.63987 0.02047 0.81258 -0.00100
C 	C 	0.67867 0.04205 0.78619 -0.07700
C 	C 	0.89096 0.01717 0.77062 0.23500
F 	F 	0.91112 0.03948 0.80485 -0.37800
C 	C 	0.91675 -0.01127 0.73551 0.25100
F 	F 	0.96075 -0.01715 0.73754 -0.35900
H 	H 	0.95508 -0.08314 0.67798 0.08000
H 	H 	0.90522 0.89131 0.66107 0.08300
H 	H 	0.79316 1.01256 0.83068 0.09400
H 	H 	0.83687 0.05689 0.84017 0.09200
H 	H 	0.81286 0.12085 0.77293 0.06300
H 	H 	0.78184 0.12160 0.83001 0.03800
H 	H 	0.73780 0.06252 0.87699 0.08200
H 	H 	0.67064 1.02537 0.92213 0.09600
H 	H 	0.61223 0.01004 0.79446 0.05400
H 	H 	0.68049 0.04748 0.74823 0.09600
C 	C 	0.42155 0.81812 1.05581 -0.03100
C 	C 	0.37193 0.80797 0.06237 -0.09200
C 	C 	0.35130 0.78926 0.02492 0.21600
F 	F 	0.37529 0.78257 0.98187 -0.36400
C 	C 	0.30612 0.77530 0.03193 0.24300
F 	F 	0.28760 0.75634 -0.00482 -0.39200
C 	C 	0.28064 0.77952 0.07665 -0.08700
C 	C 	0.23264 0.76034 0.08542 -0.02900
C 	C 	0.19940 0.80715 0.09542 0.03300
O 	O 	0.16997 0.81238 0.06050 -0.17800
C 	C 	0.14183 0.76821 0.05439 0.17100
C 	C 	0.12512 0.73034 0.09099 -0.09200
C 	C 	0.10159 0.68406 0.08094 -0.00500
C 	C 	0.09463 0.67501 1.03442 0.00100
C 	C 	0.10887 0.71429 0.99872 0.06100
C 	C 	0.13141 0.76101 0.00893 -0.11500
C 	C 	0.30114 0.79873 0.11399 0.23600
F 	F 	0.27764 0.80215 0.15775 -0.38100
C 	C 	0.34629 0.81294 0.10694 0.23800
F 	F 	0.36512 0.83043 0.14403 -0.38900
H 	H 	0.43354 0.82120 0.09054 0.07700
H 	H 	0.43888 0.78296 1.03870 0.09600
H 	H 	0.22469 0.73729 0.05504 0.09100
H 	H 	0.22841 0.73077 0.11610 0.07700
H 	H 	0.21756 0.84646 0.09526 0.09500
H 	H 	0.18026 0.80187 0.13130 0.07700
H 	H 	0.13127 0.73518 0.12688 0.08400
H 	H 	0.09139 0.65373 0.10885 0.04600
H 	H 	0.10439 0.70754 0.96250 0.06800
H 	H 	0.14344 0.79012 -0.01937 0.10100
C 	C 	0.22151 0.29329 0.97911 -0.09100
C 	C 	0.27055 0.30785 0.97226 -0.08600
C 	C 	0.30213 0.27146 0.95112 0.23200
F 	F 	0.28907 0.22433 0.93380 -0.38900
C 	C 	0.34762 0.28268 0.94857 0.23200
F 	F 	0.37699 0.24598 0.92885 -0.40800
C 	C 	0.36254 0.33105 0.96633 -0.08100
C 	C 	0.41168 0.34429 0.96254 -0.03400
C 	C 	0.42812 0.34908 1.01100 0.03700
O 	O 	0.41399 0.30435 1.04338 -0.19300
C 	C 	0.42726 0.25167 1.03063 0.19900
C 	C 	0.46560 0.24112 0.99872 -0.10600
C 	C 	0.47165 0.18995 0.97987 0.03400
C 	C 	0.44163 0.14741 0.99495 -0.03200
C 	C 	0.40565 0.15676 0.02983 0.00700
C 	C 	0.39895 0.20832 0.04806 -0.12500
C 	C 	0.33099 0.36800 0.98618 0.23100
F 	F 	0.34397 0.41602 1.00189 -0.39000
C 	C 	0.28567 0.35603 0.99007 0.23700
F 	F 	0.25666 0.39167 1.01174 -0.50000
H 	H 	0.21512 0.25422 0.96301 0.11000
H 	H 	0.20992 0.28765 1.01757 0.03500
H 	H 	0.43163 0.31355 0.94194 0.07900
H 	H 	0.41854 0.38335 0.94202 0.07600
H 	H 	0.41494 0.38685 1.02726 0.08700
H 	H 	0.46478 0.35401 1.00644 0.03800
H 	H 	0.48921 0.27287 0.98541 0.07000
H 	H 	0.49761 0.18508 0.95048 0.03900
H 	H 	0.38043 0.12574 0.03964 0.04000
H 	H 	0.36952 0.21566 0.07284 0.07800
