data_crystal

_cell_length_a 27.90880
_cell_length_b 20.46630
_cell_length_c 23.96250
_cell_angle_alpha 88.77130
_cell_angle_beta  81.47820
_cell_angle_gamma 95.35880

_symmetry_space_group_name_	'P 1'
_symmetry_space_group_name_H-M	'P 1'

loop_
_symmetry_equiv_pos_as_xyz
  x,y,z

loop_
_atom_site_label
_atom_site_type_symbol
_atom_site_fract_x
_atom_site_fract_y
_atom_site_fract_z
_atom_site_charge
Mn	Mn	0.19345 0.46143 0.03102 1.21500
Mn	Mn	0.12090 0.49482 0.93160 1.29000
Mn	Mn	0.82153 0.64799 0.97785 1.24400
Mn	Mn	0.87758 0.55408 0.06324 1.27700
Mn	Mn	-0.00219 0.51326 -0.00143 1.24900
C 	C 	0.21439 0.36041 0.94234 0.10800
N 	N 	0.18335 0.40089 0.96722 -0.24000
N 	N 	0.15244 0.40974 0.93150 -0.18200
N 	N 	0.16232 0.37367 0.88697 -0.04200
N 	N 	0.20078 0.34203 0.89267 -0.06500
N 	N 	0.06395 0.41234 0.86305 -0.09200
N 	N 	0.06178 0.45495 0.90348 -0.20600
N 	N 	0.01626 0.46062 0.92629 -0.18500
N 	N 	-0.01270 0.41700 0.90337 -0.09800
C 	C 	0.01746 0.38976 0.86246 0.15000
C 	C 	0.10601 0.67069 0.97144 0.15500
N 	N 	0.09170 0.57926 0.93459 -0.19600
N 	N 	0.12294 0.63204 0.93018 -0.07800
N 	N 	0.04543 0.46057 0.03532 -0.23300
N 	N 	0.09177 0.47090 0.01289 -0.20700
N 	N 	0.12020 0.45949 0.05047 -0.21100
N 	N 	0.09350 0.43973 0.09887 -0.10900
N 	N 	0.05442 0.58627 0.97382 -0.18600
N 	N 	0.06290 0.64225 0.99955 -0.09100
C 	C 	0.04657 0.43989 0.09019 0.12000
N 	N 	0.83458 0.67709 0.05346 -0.26400
N 	N 	0.85811 0.64378 0.08612 -0.18800
N 	N 	0.85255 0.66768 0.13739 -0.03700
N 	N 	0.82513 0.71763 0.13819 -0.07500
N 	N 	0.93859 0.59765 0.14604 -0.08000
N 	N 	0.93763 0.56879 0.09777 -0.20600
N 	N 	0.98213 0.56032 0.07341 -0.18500
N 	N 	1.01373 0.58247 0.10677 -0.08700
N 	N 	0.93469 0.38089 0.01759 -0.08900
N 	N 	0.93868 0.44561 0.02385 -0.19000
N 	N 	0.89488 0.46474 0.03987 -0.20000
N 	N 	0.86129 0.41489 0.04342 -0.08300
N 	N 	0.95150 0.56981 0.95976 -0.21400
N 	N 	0.91326 0.59249 0.99032 -0.19200
N 	N 	0.89287 0.63348 0.96028 -0.19800
N 	N 	0.91738 0.64100 0.90929 -0.09400
Cl	Cl	0.18793 0.54028 -0.03398 -0.78600
Cl	Cl	0.81084 0.54488 1.01882 -0.67200
C 	C 	0.81389 0.72214 0.08541 0.14400
C 	C 	0.98570 0.60542 0.15214 0.16600
C 	C 	0.88581 0.36327 0.02890 0.10700
C 	C 	0.95341 0.60101 0.90771 0.13200
Mn	Mn	0.51992 0.96595 0.21380 1.22300
Mn	Mn	0.48399 0.07501 0.11971 1.27400
Mn	Mn	0.40196 0.00059 0.76956 1.22300
Mn	Mn	0.46384 0.91154 0.85391 1.28600
Mn	Mn	0.48558 0.00339 -0.01961 1.24700
C 	C 	0.59945 0.08211 0.20543 0.10500
N 	N 	0.55750 1.05421 0.19188 -0.22600
N 	N 	0.54247 0.09766 0.15882 -0.19400
N 	N 	0.57200 0.15249 0.15462 -0.03600
N 	N 	0.60858 0.14384 0.18265 -0.05400
N 	N 	0.55245 0.16637 0.04826 -0.09300
N 	N 	0.51573 0.12180 0.04529 -0.19800
N 	N 	0.52063 0.09537 -0.00553 -0.20300
N 	N 	0.56350 0.11980 0.96611 -0.07300
C 	C 	0.58264 0.16482 -0.00035 0.13400
C 	C 	0.35374 0.01969 0.07926 0.14800
N 	N 	0.42621 0.05071 0.08555 -0.21600
N 	N 	0.38180 0.05194 0.11259 -0.09100
N 	N 	0.52246 0.97068 0.04283 -0.21900
N 	N 	0.51022 0.98917 0.09510 -0.18100
N 	N 	0.52570 0.94940 0.13083 -0.20100
N 	N 	0.55222 0.90702 0.10334 -0.09900
N 	N 	0.42635 1.01881 0.03862 -0.17700
N 	N 	0.38080 0.99755 0.03338 -0.07500
C 	C 	0.55164 0.92116 0.04796 0.08600
N 	N 	0.36948 -0.07825 0.81842 -0.26400
N 	N 	0.39578 0.87980 0.83934 -0.18200
N 	N 	0.36699 0.83232 0.86871 -0.04800
N 	N 	0.32125 0.84526 0.87084 -0.07800
N 	N 	0.42479 0.81816 0.94613 -0.10100
N 	N 	0.44977 0.87556 0.93246 -0.20600
N 	N 	0.45236 0.91034 0.97758 -0.17200
N 	N 	0.42782 0.87671 0.02255 -0.11300
N 	N 	0.57912 0.02414 0.89323 -0.10900
N 	N 	0.53819 -0.01352 0.91096 -0.19200
N 	N 	0.53009 0.94623 0.86951 -0.18400
N 	N 	0.56723 0.95157 0.82817 -0.07900
N 	N 	0.44886 0.03582 0.91989 -0.22700
N 	N 	0.44120 0.00050 0.87580 -0.19100
N 	N 	0.42253 0.03621 0.83979 -0.20400
N 	N 	0.41671 0.09508 0.85871 -0.10500
Cl	Cl	0.45255 1.01765 0.20140 -0.72700
Cl	Cl	0.47437 -0.04617 0.76395 -0.76100
C 	C 	0.32298 0.90298 0.84189 0.11300
C 	C 	0.41113 0.81941 1.00207 0.12900
C 	C 	0.59782 0.99954 0.84388 0.16300
C 	C 	0.43283 0.09497 0.90923 0.14500
Mn	Mn	0.18957 0.07104 0.56572 1.23600
Mn	Mn	0.11099 0.94074 0.53721 1.29000
Mn	Mn	0.82499 0.92218 0.39292 1.22200
Mn	Mn	0.89215 0.04819 0.44740 1.27300
Mn	Mn	0.00031 -0.00426 0.49836 1.25000
C 	C 	0.15268 0.00610 0.68137 0.12900
N 	N 	0.15791 0.00313 0.62531 -0.24700
N 	N 	0.12718 0.95357 0.61528 -0.18000
N 	N 	0.10341 0.92647 0.66332 -0.04300
N 	N 	0.11914 0.95813 0.70589 -0.06500
N 	N 	0.03670 0.84604 0.59763 -0.09600
N 	N 	0.04356 0.90085 0.56689 -0.20300
N 	N 	0.00260 0.91501 0.55006 -0.19700
N 	N 	0.96665 0.86968 0.57109 -0.07700
C 	C 	-0.01083 0.82723 0.60054 0.14300
C 	C 	0.11851 0.96841 0.37712 0.13300
N 	N 	0.09406 0.93324 0.46068 -0.18800
N 	N 	0.12977 0.93019 0.41837 -0.08000
N 	N 	0.04633 0.04651 0.54749 -0.23100
N 	N 	0.09212 0.03347 0.53786 -0.20500
N 	N 	0.12083 0.08233 0.55307 -0.21000
N 	N 	0.09434 0.12560 0.57908 -0.11100
N 	N 	0.06137 -0.02985 0.44595 -0.20700
N 	N 	0.07724 -0.00394 0.39482 -0.11500
C 	C 	0.04737 0.10155 0.57943 0.07100
N 	N 	0.86286 0.99677 0.34366 -0.24500
N 	N 	0.88778 0.04573 0.36448 -0.20900
N 	N 	0.91649 0.08036 0.32336 -0.05300
N 	N 	0.91009 0.05500 0.27440 -0.09200
N 	N 	0.97054 0.14311 0.39210 -0.10400
N 	N 	0.95964 0.09511 0.43075 -0.20900
N 	N 	0.99966 0.07661 0.44694 -0.18600
N 	N 	0.03812 0.11092 0.41724 -0.11200
N 	N 	0.92969 1.02977 0.60326 -0.07500
N 	N 	0.93724 1.02345 0.54798 -0.16900
N 	N 	0.89932 0.04372 0.52751 -0.21300
N 	N 	0.86651 0.06272 0.56752 -0.09100
N 	N 	0.95695 0.94219 0.44867 -0.21900
N 	N 	0.91332 0.95820 0.44318 -0.19200
N 	N 	0.88826 0.91014 0.42143 -0.20400
N 	N 	0.91603 0.86289 0.40754 -0.11000
Cl	Cl	0.18748 -0.01242 0.50515 -0.75600
Cl	Cl	0.81575 0.99542 0.46289 -0.73400
C 	C 	0.87733 1.00218 0.28765 0.11400
C 	C 	1.01928 0.15213 0.38296 0.13300
C 	C 	0.88583 0.05375 0.61452 0.08200
C 	C 	0.95997 0.88388 0.42185 0.11400
C 	C 	1.01822 0.10264 0.63693 0.06400
C 	C 	1.00103 0.04292 0.66635 -0.11000
C 	C 	0.97649 0.04193 0.72155 0.13800
N 	N 	0.95348 -0.01853 0.74806 -0.19900
C 	C 	0.97443 0.10022 0.75062 -0.11900
C 	C 	0.99939 0.15942 0.72659 0.10300
C 	C 	1.00290 0.21910 0.76228 -0.02600
C 	C 	0.00383 0.28254 0.73767 -0.09700
C 	C 	0.00688 0.33878 0.76999 0.16300
Cl	Cl	0.01695 0.41610 0.73454 -0.34300
C 	C 	0.00482 0.33273 0.82897 -0.04100
C 	C 	0.00379 0.27018 0.85386 -0.10100
C 	C 	1.00526 0.21425 0.82121 0.17900
Cl	Cl	1.01718 0.14188 0.85588 -0.29800
C 	C 	0.01953 0.16058 0.66841 -0.13100
H 	H 	1.00404 -0.00312 0.64522 0.06300
H 	H 	0.93483 -0.02005 0.78929 0.10300
H 	H 	0.95501 -0.06231 0.72656 0.09600
H 	H 	0.95309 0.09908 0.79221 0.09400
H 	H 	0.00202 0.28888 0.69310 0.06900
H 	H 	1.00618 0.26538 0.89848 0.11300
H 	H 	0.03817 0.20544 0.64787 0.06500
C 	C 	0.85211 0.96889 0.24568 -0.01100
C 	C 	0.87717 -0.03609 0.19109 -0.10000
C 	C 	0.85183 -0.03868 0.14503 0.11400
N 	N 	0.87811 -0.03537 0.08896 -0.19000
C 	C 	0.80122 -0.03671 0.15420 -0.09500
C 	C 	0.77570 -0.03503 0.20914 0.01700
C 	C 	0.72619 0.98676 0.21771 0.02200
C 	C 	0.71925 0.04585 0.24525 -0.12400
C 	C 	0.67572 0.07447 0.24703 0.15400
Cl	Cl	0.67008 0.14907 0.28140 -0.33400
C 	C 	0.63840 1.04462 0.22015 -0.03900
C 	C 	0.64395 0.98348 0.19584 -0.07200
C 	C 	0.68760 0.95481 0.19396 0.14400
Cl	Cl	0.69324 0.88076 0.15902 -0.33400
C 	C 	0.80131 0.96373 0.25500 -0.04400
H 	H 	0.91662 -0.03144 0.18401 0.06200
H 	H 	0.86018 -0.03084 0.05410 0.10800
H 	H 	-0.08418 -0.03708 0.08201 0.07500
H 	H 	0.78231 -0.03083 0.11875 0.09700
H 	H 	0.74885 0.07206 0.26260 0.07700
H 	H 	0.61591 0.96040 0.17406 0.02500
H 	H 	0.78231 0.96978 0.29716 -0.00800
C 	C 	1.00027 0.87420 0.37674 0.01500
C 	C 	1.01398 0.92605 0.33654 -0.08300
C 	C 	1.04072 0.91629 0.28417 0.12300
N 	N 	1.05539 0.97043 0.24476 -0.19900
C 	C 	1.04947 0.85281 0.26864 -0.10100
C 	C 	1.03204 0.79851 0.30542 0.07400
C 	C 	1.02728 0.73259 0.28012 -0.01700
C 	C 	0.98159 0.69605 0.28862 -0.07800
C 	C 	0.96925 0.64924 0.25031 0.17700
Cl	Cl	0.91098 0.60582 0.26595 -0.30300
C 	C 	1.00266 0.63883 0.20144 -0.03600
C 	C 	1.05091 0.66646 0.19867 -0.05200
C 	C 	1.06349 0.71286 0.23782 0.14900
Cl	Cl	1.12432 0.74740 0.23164 -0.26600
C 	C 	1.00870 0.81004 0.36044 -0.04300
H 	H 	1.00197 0.97430 0.34478 0.06800
H 	H 	1.07550 0.96338 0.20543 0.10900
H 	H 	1.04785 1.01810 0.25526 0.11400
H 	H 	1.06508 0.84572 0.22533 0.09000
H 	H 	0.95372 0.70723 0.32256 0.08000
H 	H 	1.07820 0.65422 0.16480 0.08400
H 	H 	-0.00841 0.76925 0.38804 0.04700
C 	C 	0.15736 1.00134 0.33616 0.01000
C 	C 	0.18675 1.05247 0.35567 -0.04600
C 	C 	0.22943 0.07902 0.32231 0.07900
N 	N 	0.25984 0.13005 0.34300 -0.20600
C 	C 	0.24168 0.05637 0.26817 -0.09300
C 	C 	0.21137 0.00692 0.24710 0.04700
C 	C 	0.22468 -0.01017 0.18787 -0.04400
C 	C 	0.22966 0.04262 0.14884 -0.09200
C 	C 	0.27007 0.05083 0.10699 0.18000
Cl	Cl	0.28520 0.13011 0.07692 -0.35200
C 	C 	0.30186 0.00120 0.09866 -0.07500
C 	C 	0.28914 0.94095 0.12878 -0.03600
C 	C 	0.25124 0.93554 0.17463 0.16600
Cl	Cl	0.24423 0.86572 0.22035 -0.29300
C 	C 	0.16930 0.97857 0.28156 -0.03000
H 	H 	0.17692 1.07090 0.39747 0.05900
H 	H 	0.29126 0.15123 0.31750 0.08600
H 	H 	0.25044 1.14807 0.38320 0.09400
H 	H 	0.27431 0.07864 0.24170 0.06900
H 	H 	0.20893 0.08429 0.15878 0.07500
H 	H 	0.31321 0.90220 0.12275 0.07300
H 	H 	0.14634 0.93971 0.26616 0.06800
C 	C 	0.04629 0.18612 0.33050 0.00700
C 	C 	0.09625 0.18093 0.31509 -0.09000
C 	C 	0.12064 0.20669 0.26272 0.10800
N 	N 	0.17177 0.20263 0.24772 -0.19900
C 	C 	0.09502 0.23736 0.22520 -0.10400
C 	C 	0.04503 0.24351 0.23935 0.07900
C 	C 	0.02088 0.28430 0.20120 -0.03500
C 	C 	0.00532 0.34383 0.22071 -0.09900
C 	C 	1.00159 0.39553 0.18268 0.17900
Cl	Cl	0.99287 0.47197 0.21141 -0.31000
C 	C 	1.01250 0.38827 0.12372 -0.02800
C 	C 	0.01687 0.32396 0.10507 -0.09200
C 	C 	0.02280 0.27272 0.14301 0.15200
Cl	Cl	0.03734 0.19673 0.11561 -0.34700
C 	C 	0.02098 0.21836 0.29249 -0.09200
H 	H 	0.11615 0.15601 0.34331 0.05400
H 	H 	0.18998 0.21997 0.20816 0.08800
H 	H 	0.19207 0.18423 0.27661 0.08700
H 	H 	0.11462 0.25877 0.18561 0.06800
H 	H 	0.00199 0.35311 0.26539 0.07900
H 	H 	0.02441 0.31610 0.06019 0.07400
H 	H 	0.98245 0.22319 0.30373 0.08100
C 	C 	0.59704 0.91351 1.00864 0.04600
C 	C 	0.62001 0.96852 0.97675 -0.08400
C 	C 	0.66659 0.96904 0.94599 0.15900
N 	N 	0.69111 1.02832 0.91859 -0.18300
C 	C 	0.69160 0.91386 0.94872 -0.09300
C 	C 	0.67484 0.86537 0.99112 0.08400
C 	C 	0.71076 0.82853 1.01561 -0.02900
C 	C 	0.69902 0.76211 1.03236 -0.07800
C 	C 	0.73134 0.72763 1.05813 0.16400
Cl	Cl	0.71458 0.64433 1.07782 -0.33700
C 	C 	0.77622 0.75951 0.06756 -0.10600
C 	C 	0.78800 0.82555 0.05156 -0.09000
C 	C 	0.75570 0.86053 1.02653 0.20100
Cl	Cl	0.77259 0.94529 0.01307 -0.36000
C 	C 	0.62601 0.86254 1.01795 -0.03500
H 	H 	0.60332 1.01365 0.98047 0.09900
H 	H 	0.72720 1.02972 0.89883 0.11600
H 	H 	0.67403 0.07165 0.91921 0.09900
H 	H 	0.72776 0.91459 0.92476 0.09600
H 	H 	0.66475 0.73688 1.02515 0.08000
H 	H 	0.82301 0.84957 0.05751 0.07700
H 	H 	0.61261 0.82552 0.05092 0.04200
C 	C 	0.86059 0.29715 0.04071 0.03000
C 	C 	0.86631 0.26603 0.09152 -0.09100
C 	C 	0.82862 0.22312 0.12072 0.12600
N 	N 	0.83285 0.19675 0.17539 -0.19700
C 	C 	0.78535 0.20997 0.09827 -0.10600
C 	C 	0.77925 0.23759 0.04544 0.06800
C 	C 	0.73212 0.22002 0.02288 0.00100
C 	C 	0.71038 0.15566 0.03414 -0.10500
C 	C 	0.66217 0.13817 0.02793 0.19100
Cl	Cl	0.63487 0.06715 0.06641 -0.37000
C 	C 	0.63592 0.18104 -0.00005 -0.10400
C 	C 	0.65847 0.24446 0.98421 0.03200
C 	C 	0.70532 0.26513 -0.00271 0.08200
Cl	Cl	0.72552 0.34921 0.98690 -0.26400
C 	C 	0.81790 0.28066 0.01660 -0.06500
H 	H 	0.89765 0.28099 0.11177 0.07400
H 	H 	0.80437 0.16633 0.19864 0.10200
H 	H 	0.86432 0.20826 0.19340 0.10300
H 	H 	0.75595 0.17888 0.12313 0.08000
H 	H 	0.72960 0.11957 0.05319 0.08900
H 	H 	0.63809 0.27950 0.96569 0.07200
H 	H 	0.81406 0.30441 -0.02303 0.07500
C 	C 	0.28537 0.94894 0.85674 0.04600
C 	C 	0.25278 0.93794 0.90750 -0.07600
C 	C 	0.21935 0.98271 0.92498 0.16200
N 	N 	0.18723 0.97176 0.97742 -0.18100
C 	C 	0.21701 1.03798 0.89078 -0.12000
C 	C 	0.24745 1.04939 0.83824 0.13500
C 	C 	0.23457 0.09607 0.79440 -0.07800
C 	C 	0.25857 1.09084 0.73894 -0.04500
C 	C 	0.23202 1.06364 0.69856 0.16000
Cl	Cl	0.26444 1.03454 0.63686 -0.45800
C 	C 	0.18093 0.05262 0.71207 -0.11100
C 	C 	0.15760 0.08174 0.75960 -0.05600
C 	C 	0.18538 0.10943 0.79850 0.15600
Cl	Cl	0.15844 0.16060 0.84988 -0.31100
C 	C 	0.28375 0.00568 0.82365 -0.11600
H 	H 	0.25444 0.89587 0.93496 0.08200
H 	H 	0.16168 1.00461 0.99061 0.12200
H 	H 	0.18859 0.93064 0.00348 0.08700
H 	H 	0.18960 1.06980 0.90516 0.12000
H 	H 	0.29789 1.09352 0.73042 0.04200
H 	H 	0.11835 0.08177 0.76684 0.07900
H 	H 	0.30941 0.01271 0.78514 -0.02400
C 	C 	-0.03503 0.57279 0.85170 -0.01800
C 	C 	0.93983 0.51199 0.84338 -0.05700
C 	C 	0.92749 0.49583 0.79049 0.13500
N 	N 	0.90120 0.43378 0.78385 -0.19200
C 	C 	0.93733 0.54255 0.74561 -0.09600
C 	C 	0.95987 0.60507 0.75332 0.09100
C 	C 	0.96021 0.65898 0.71026 -0.00400
C 	C 	-0.01485 0.65431 0.65536 -0.10600
C 	C 	-0.01078 0.70685 0.61585 0.18100
Cl	Cl	0.02424 0.70011 0.54901 -0.33100
C 	C 	-0.03184 0.76533 0.63074 -0.07500
C 	C 	0.94007 0.76816 0.68391 -0.03200
C 	C 	0.93558 0.71541 0.72333 0.14800
Cl	Cl	0.89904 0.72232 0.78895 -0.34900
C 	C 	-0.02363 0.61822 0.80519 -0.06600
H 	H 	0.92392 0.48048 0.87947 0.06500
H 	H 	0.89067 0.42138 0.74514 0.10700
H 	H 	0.89304 0.39910 0.81735 0.10500
H 	H 	0.92444 0.53182 0.70603 0.08100
H 	H 	0.00343 0.61105 0.64390 0.09100
H 	H 	0.92453 0.81321 0.69638 0.07300
H 	H 	-0.00875 0.66774 0.81203 0.07300
C 	C 	0.86478 0.07893 0.66843 0.05100
C 	C 	0.88691 0.13602 0.68853 -0.10800
C 	C 	0.86442 0.16485 0.73669 0.13500
N 	N 	0.88577 0.22491 0.75547 -0.20000
C 	C 	0.81900 0.13756 0.76370 -0.11800
C 	C 	0.79393 0.08491 0.74020 0.10400
C 	C 	0.74246 0.06351 0.76324 -0.07300
C 	C 	0.72790 0.99623 0.77312 -0.04300
C 	C 	0.68009 0.97437 0.79664 0.15300
Cl	Cl	0.66542 0.88943 0.81050 -0.32600
C 	C 	0.64635 1.02034 0.81246 -0.01900
C 	C 	0.66048 0.08735 0.80178 -0.09800
C 	C 	0.70762 0.10917 0.77597 0.17000
Cl	Cl	0.72024 0.19374 0.75805 -0.32700
C 	C 	0.81772 0.05455 0.69328 -0.11800
H 	H 	0.92060 0.15946 0.66548 0.06900
H 	H 	0.87129 0.24473 0.79339 0.10300
H 	H 	0.91301 0.25305 0.72852 0.10000
H 	H 	0.80198 0.16024 0.80098 0.09200
H 	H 	0.75422 0.96067 0.76405 0.07300
H 	H 	0.63468 0.12290 0.81355 0.08600
H 	H 	0.79895 1.01397 0.67434 0.09400
C 	C 	0.37275 0.77158 1.03169 0.02700
C 	C 	0.38534 0.71047 1.04867 -0.08700
C 	C 	0.34952 0.65778 1.06245 0.11700
N 	N 	0.36303 0.59432 1.07604 -0.19500
C 	C 	0.30078 0.66635 1.05929 -0.09200
C 	C 	0.28687 0.72782 1.04393 0.08000
C 	C 	0.23570 0.73273 1.03360 -0.01900
C 	C 	0.22771 0.75826 0.98128 -0.07800
C 	C 	0.18189 0.74833 0.96371 0.17400
Cl	Cl	0.17618 0.77645 0.89534 -0.31400
C 	C 	0.14294 0.71106 0.99809 -0.03700
C 	C 	0.14951 0.69236 1.05291 -0.05400
C 	C 	0.19513 0.70322 1.07098 0.15400
Cl	Cl	0.20078 0.67451 1.13926 -0.29200
C 	C 	0.32345 0.78056 1.03023 -0.06500
H 	H 	0.42331 0.70289 1.04828 0.06500
H 	H 	0.33690 0.55391 1.08400 0.08300
H 	H 	0.39953 0.58690 1.07618 0.10000
H 	H 	0.27406 0.62396 1.06643 0.06600
H 	H 	0.25818 0.78077 0.95185 0.08200
H 	H 	0.12079 0.66227 1.07927 0.07900
H 	H 	0.31404 0.82747 1.01545 0.07100
C 	C 	0.26595 0.36699 0.94947 -0.03700
C 	C 	0.29460 0.42399 0.92762 -0.10400
C 	C 	0.34522 0.42722 0.92169 0.11200
N 	N 	0.37387 0.48515 0.89699 -0.19900
C 	C 	0.36747 0.37218 0.93672 -0.09700
C 	C 	0.33941 0.31531 0.96218 0.05200
C 	C 	0.36294 0.25339 0.97050 0.01900
C 	C 	0.33706 0.19311 0.96200 -0.08300
C 	C 	0.35970 0.13567 0.95706 0.19600
Cl	Cl	0.32405 0.06317 0.94562 -0.33600
C 	C 	0.41056 0.13817 0.95162 -0.04600
C 	C 	0.43650 0.19595 -0.03437 -0.08900
C 	C 	0.41231 0.25227 -0.02112 0.12200
Cl	Cl	0.44533 0.31894 0.00574 -0.35100
C 	C 	0.28795 0.31442 0.96945 -0.02900
H 	H 	0.27754 0.46470 0.91213 0.05600
H 	H 	0.41184 0.48882 0.89134 0.09900
H 	H 	0.35707 0.52552 0.88474 0.09400
H 	H 	0.40643 0.37308 0.92523 0.09400
H 	H 	0.29943 0.18962 0.95571 0.09900
H 	H 	0.47572 0.19895 -0.03730 0.07200
H 	H 	0.26444 0.27206 -0.01208 0.02600
