data_crystal

_cell_length_a 24.73100
_cell_length_b 19.06810
_cell_length_c 20.52140
_cell_angle_alpha 89.52300
_cell_angle_beta  77.66990
_cell_angle_gamma 89.36840

_symmetry_space_group_name_	'P 1'
_symmetry_space_group_name_H-M	'P 1'

loop_
_symmetry_equiv_pos_as_xyz
  x,y,z

loop_
_atom_site_label
_atom_site_type_symbol
_atom_site_fract_x
_atom_site_fract_y
_atom_site_fract_z
_atom_site_charge
Mn	Mn	0.22785 0.37868 0.02928 1.22900
Mn	Mn	0.14903 0.45840 0.92982 1.28700
Mn	Mn	0.78353 0.53234 0.96507 1.23600
Mn	Mn	0.85665 0.50379 0.08889 1.27100
Mn	Mn	0.00327 0.48080 0.01270 1.25300
C 	C 	0.25000 0.28743 0.90212 0.17100
N 	N 	0.22101 0.33738 0.94113 -0.24700
N 	N 	0.18869 0.36636 0.90475 -0.18900
N 	N 	0.19696 0.33631 0.84561 -0.04600
N 	N 	0.23455 0.28571 0.84286 -0.08900
N 	N 	0.08888 0.40076 0.83235 -0.09700
N 	N 	0.08443 0.42821 0.89220 -0.20200
N 	N 	0.03189 0.43318 0.92308 -0.18900
N 	N 	0.00017 0.40962 0.88380 -0.09500
C 	C 	0.03617 0.38915 0.82783 0.14900
C 	C 	0.10190 0.65644 0.98202 0.14400
N 	N 	0.11162 0.55009 0.95502 -0.19600
N 	N 	0.13905 0.60925 0.95074 -0.08500
N 	N 	0.06147 0.42321 0.05172 -0.23000
N 	N 	0.11426 0.42066 0.02059 -0.20300
N 	N 	0.14398 0.38502 0.05584 -0.20600
N 	N 	0.11170 0.35817 0.10950 -0.11100
N 	N 	0.05983 0.55948 0.98687 -0.18800
N 	N 	0.05224 0.62592 1.00575 -0.08700
C 	C 	0.06020 0.38105 0.10648 0.12400
N 	N 	0.78365 0.60183 0.03880 -0.25300
N 	N 	0.81057 0.59269 0.08759 -0.18900
N 	N 	0.78585 0.63019 0.13976 -0.05000
N 	N 	0.74324 0.66543 0.12467 -0.07200
N 	N 	0.91414 0.58559 0.17911 -0.09500
N 	N 	0.91958 0.54940 0.12312 -0.20000
N 	N 	0.97228 0.53207 0.10069 -0.18900
N 	N 	1.00244 0.55822 0.14040 -0.07900
N 	N 	0.94934 0.33715 0.02088 -0.08900
N 	N 	0.94586 0.40313 0.04132 -0.18900
N 	N 	0.89814 0.41349 0.08357 -0.20300
N 	N 	0.86984 0.35489 0.09366 -0.10200
N 	N 	0.94710 0.53500 0.97128 -0.22800
N 	N 	0.89401 0.52453 0.99434 -0.19000
N 	N 	0.86633 0.53467 0.94709 -0.20300
N 	N 	0.89992 0.55516 0.89172 -0.11200
Cl	Cl	0.22144 0.48473 -0.02263 -0.75700
Cl	Cl	0.78987 0.45220 1.04522 -0.71000
C 	C 	0.74263 0.64721 0.06137 0.10600
C 	C 	0.96630 0.59145 0.18961 0.14400
C 	C 	0.90168 0.30792 0.05465 0.15200
C 	C 	0.95035 0.55749 0.90733 0.17100
Mn	Mn	0.52196 0.86574 0.30368 1.22800
Mn	Mn	0.50911 0.01986 0.21906 1.27100
Mn	Mn	0.49118 0.08177 0.77298 1.21700
Mn	Mn	0.49714 0.93946 0.87481 1.28700
Mn	Mn	0.49752 -0.01217 0.04624 1.25000
C 	C 	0.63792 -0.07104 0.28097 0.07700
N 	N 	0.58349 0.93636 0.28327 -0.22500
N 	N 	0.57784 -0.00262 0.25440 -0.20600
N 	N 	0.62637 0.02817 0.23677 -0.05200
N 	N 	0.66487 -0.01351 0.25262 -0.09200
N 	N 	0.59371 0.11200 0.14046 -0.09500
N 	N 	0.55289 0.06914 0.13794 -0.20500
N 	N 	0.54935 0.05896 0.07539 -0.20400
N 	N 	0.58913 0.09451 1.03523 -0.06200
C 	C 	0.61617 0.12832 0.07659 0.13000
C 	C 	0.35785 0.05813 0.18131 0.13100
N 	N 	0.44069 0.03683 0.18389 -0.20700
N 	N 	0.39379 0.05881 0.22191 -0.09000
N 	N 	0.51776 0.91456 0.11049 -0.23000
N 	N 	0.51865 0.92743 0.17315 -0.18800
N 	N 	0.52231 0.86840 0.20577 -0.20400
N 	N 	0.52488 0.81433 0.16576 -0.11500
N 	N 	0.43447 1.02288 0.12269 -0.17100
N 	N 	0.38229 1.03453 0.11981 -0.06800
C 	C 	0.52266 0.84344 0.10606 0.12100
N 	N 	0.43201 0.00787 0.79048 -0.27400
N 	N 	0.43309 0.95384 0.83077 -0.17700
N 	N 	0.40235 0.90273 0.81583 -0.05000
N 	N 	0.38049 0.92325 0.76524 -0.08700
N 	N 	0.40648 0.85567 0.95278 -0.10600
N 	N 	0.44711 0.89896 0.95597 -0.20400
N 	N 	0.44553 0.91678 1.01831 -0.17300
N 	N 	0.40355 0.88491 0.05834 -0.11500
N 	N 	0.61717 -0.03792 0.97803 -0.09800
N 	N 	0.56455 -0.04636 0.97471 -0.19700
N 	N 	0.56265 0.92898 0.91552 -0.19200
N 	N 	0.61311 0.92060 0.87899 -0.08800
N 	N 	0.47612 0.05703 0.97553 -0.22100
N 	N 	0.48674 0.03753 0.91204 -0.19700
N 	N 	0.48245 0.09103 0.87265 -0.20600
N 	N 	0.46469 0.14677 0.90829 -0.11500
Cl	Cl	0.46261 0.95925 0.30913 -0.73200
Cl	Cl	0.54751 -0.01067 0.78168 -0.77400
C 	C 	0.39956 0.98862 0.74956 0.14300
C 	C 	0.37971 0.84702 1.01657 0.19100
C 	C 	0.64728 0.94169 0.91791 0.15700
C 	C 	0.45903 0.12581 0.97259 0.17700
Mn	Mn	0.20812 0.04381 0.55317 1.24100
Mn	Mn	0.12213 0.91440 0.51805 1.28100
Mn	Mn	0.76913 0.93541 0.44925 1.23600
Mn	Mn	0.85717 0.06091 0.48446 1.26600
Mn	Mn	-0.01105 -0.01507 0.50118 1.25900
C 	C 	0.17951 -0.04094 0.68288 0.11500
N 	N 	0.17801 -0.03286 0.61859 -0.25700
N 	N 	0.14861 0.91462 0.60439 -0.18200
N 	N 	0.13391 0.87338 0.65718 -0.04400
N 	N 	0.15308 0.89974 0.70744 -0.06600
N 	N 	0.04149 0.82991 0.61434 -0.09500
N 	N 	0.04799 0.87554 0.56450 -0.20400
N 	N 	-0.00036 0.90297 0.56036 -0.20200
N 	N 	0.96009 0.87643 0.60757 -0.06700
C 	C 	-0.01338 0.83022 0.64029 0.09900
C 	C 	0.09971 0.94457 0.33027 0.15400
N 	N 	0.09639 0.92046 0.43156 -0.18900
N 	N 	0.13056 0.92020 0.37255 -0.08800
N 	N 	0.04727 0.04068 0.53501 -0.24200
N 	N 	0.09606 0.01392 0.53729 -0.20200
N 	N 	0.12870 0.06329 0.55098 -0.20300
N 	N 	0.10211 0.12391 0.56086 -0.11200
N 	N 	0.04768 -0.05403 0.42596 -0.21500
N 	N 	0.04822 -0.03884 0.36305 -0.12000
C 	C 	0.05102 0.10955 0.55113 0.14200
N 	N 	0.80175 1.01056 0.38243 -0.24600
N 	N 	0.83106 0.06284 0.39757 -0.20900
N 	N 	0.85490 0.09674 0.34264 -0.05500
N 	N 	0.84269 0.06544 0.29022 -0.10400
N 	N 	0.94043 0.15025 0.39497 -0.11100
N 	N 	0.93176 0.09739 0.43813 -0.21000
N 	N 	0.97911 0.06723 0.44199 -0.18800
N 	N 	0.02038 0.09924 0.40173 -0.12500
N 	N 	0.93583 1.02540 0.63907 -0.08100
N 	N 	0.93038 1.02379 0.57656 -0.17700
N 	N 	0.88347 0.05440 0.57082 -0.20800
N 	N 	0.85666 0.07766 0.62950 -0.10200
N 	N 	0.93008 0.93100 0.46725 -0.22400
N 	N 	0.88163 0.95984 0.46592 -0.18700
N 	N 	0.84753 0.91173 0.45359 -0.20000
N 	N 	0.87267 0.85012 0.44334 -0.11200
Cl	Cl	0.20512 -0.03679 0.47196 -0.76600
Cl	Cl	0.77344 1.01521 0.53073 -0.73300
C 	C 	0.81074 1.01062 0.31545 0.16600
C 	C 	0.99589 0.15029 0.37243 0.15900
C 	C 	0.88990 0.05893 0.67136 0.13500
C 	C 	0.92462 0.86245 0.45119 0.14800
C 	C 	0.00634 0.16489 0.55783 -0.15700
C 	C 	-0.01448 0.18697 0.63099 -0.06100
C 	C 	0.01964 0.24590 0.65510 -0.03200
C 	C 	0.00123 0.31530 0.62990 -0.01900
C 	C 	0.00961 0.37932 0.65126 -0.06200
C 	C 	0.03126 0.39711 0.71033 0.06300
I 	I 	0.06934 0.49756 0.70340 -0.13800
C 	C 	0.02006 0.36035 0.76796 -0.05900
C 	C 	-0.00619 0.29019 0.77421 0.04500
I 	I 	-0.05502 0.26029 0.86790 -0.10000
C 	C 	0.01225 0.23906 0.73031 0.01500
I 	I 	0.03886 0.14226 0.76767 -0.09300
H 	H 	0.97062 0.14493 0.53986 0.06000
H 	H 	0.02223 0.21060 0.52587 0.06000
H 	H 	0.98410 0.13926 0.66219 0.07200
H 	H 	-0.05852 0.20434 0.63807 0.03300
H 	H 	0.06431 0.23805 0.63276 0.05300
H 	H 	-0.01513 0.31395 0.58498 0.02800
H 	H 	-0.00043 0.42324 0.62203 0.05000
C 	C 	0.80215 0.94861 0.27450 -0.18100
C 	C 	0.78470 0.88404 0.31906 -0.01100
C 	C 	0.78164 0.81513 0.28131 -0.04800
C 	C 	0.74974 0.75970 0.32639 -0.02500
C 	C 	0.69525 0.76410 0.35304 -0.06600
C 	C 	0.65963 0.82470 0.34343 0.02300
I 	I 	0.60040 0.85544 0.42946 -0.28500
C 	C 	0.66633 0.86124 0.28565 -0.07200
C 	C 	0.70446 0.83800 0.22351 0.04400
I 	I 	0.66878 0.82738 0.13985 -0.12000
C 	C 	0.75833 0.82356 0.21988 0.03000
I 	I 	0.81661 0.81594 0.12720 -0.08000
H 	H 	0.84166 0.93676 0.23881 0.09300
H 	H 	0.77049 0.96267 0.24564 0.09300
H 	H 	0.74489 0.89662 0.35347 -0.06400
H 	H 	0.81565 0.87489 0.34998 -0.03700
H 	H 	0.82482 0.79517 0.26523 0.05600
H 	H 	0.77246 0.71429 0.33857 0.04000
H 	H 	0.67722 0.72383 0.38820 0.04500
C 	C 	0.96841 0.80573 0.44136 -0.12000
C 	C 	0.97884 0.77525 0.36969 -0.02500
C 	C 	0.02104 0.71384 0.36045 -0.07400
C 	C 	0.99878 0.64862 0.39716 0.01400
C 	C 	0.96540 0.60351 0.37683 -0.06100
C 	C 	0.94728 0.60556 0.31284 0.06100
I 	I 	0.86671 0.56082 0.32608 -0.13500
C 	C 	0.98169 0.61855 0.25262 -0.02500
C 	C 	0.03860 0.65043 0.24754 0.02000
I 	I 	0.10691 0.61556 0.17027 -0.09100
C 	C 	0.05080 0.70073 0.28895 0.03000
I 	I 	0.12315 0.76430 0.26074 -0.10900
H 	H 	0.95382 0.76332 0.47814 0.07100
H 	H 	0.00751 0.82576 0.45160 0.03500
H 	H 	0.99518 0.81792 0.33385 0.06000
H 	H 	0.93936 0.75710 0.35822 0.04800
H 	H 	0.05420 0.73025 0.38604 0.04800
H 	H 	1.00776 0.63979 0.44608 0.03600
H 	H 	0.94894 0.56178 0.41129 0.06100
C 	C 	0.12466 0.97863 0.26557 -0.07200
C 	C 	0.14997 0.04894 0.27994 -0.10400
C 	C 	0.16836 0.09425 0.21702 -0.01900
C 	C 	0.18472 0.16548 0.23487 -0.03200
C 	C 	0.23474 0.18625 0.24082 -0.06000
C 	C 	0.28846 0.14787 0.22642 0.05400
I 	I 	0.35317 0.21553 0.24145 -0.12200
C 	C 	0.29951 0.08226 0.20085 -0.05400
C 	C 	0.25878 0.03531 0.18010 0.04200
I 	I 	0.27652 -0.07417 0.17706 -0.14000
C 	C 	0.21132 0.05807 0.16569 0.01000
I 	I 	0.18341 0.02023 0.08185 -0.13400
H 	H 	0.15651 0.94317 0.23671 0.07600
H 	H 	0.09196 -0.01200 0.23672 0.04400
H 	H 	0.18561 1.03896 0.30406 0.09100
H 	H 	0.11853 0.07924 0.31596 0.05300
H 	H 	0.13130 0.10288 0.19527 0.04200
H 	H 	0.15113 0.20300 0.24909 0.02500
H 	H 	0.23630 0.23984 0.25741 0.04500
C 	C 	1.02753 0.19474 0.31675 -0.13700
C 	C 	0.99610 0.25874 0.29741 -0.03800
C 	C 	0.95275 0.24219 0.25523 -0.03900
C 	C 	0.91109 0.30062 0.25777 -0.01600
C 	C 	0.92469 0.36411 0.23266 -0.05200
C 	C 	0.98137 0.38256 0.19953 0.04900
I 	I 	1.02358 0.44708 0.25577 -0.10400
C 	C 	1.01081 0.34718 0.14717 -0.05300
C 	C 	1.00358 0.26984 0.13584 0.05100
I 	I 	0.04610 0.22907 0.04090 -0.12700
C 	C 	0.97856 0.22340 0.18360 0.03200
I 	I 	-0.02459 0.11353 0.16432 -0.14500
H 	H 	1.06437 0.21447 0.33361 0.06500
H 	H 	1.04299 0.16133 0.27253 0.07700
H 	H 	1.02821 0.29323 0.26822 0.05100
H 	H 	0.97630 0.28761 0.34335 0.04500
H 	H 	0.92866 0.19648 0.27871 0.06200
H 	H 	0.86858 0.29143 0.28306 0.03700
H 	H 	0.89348 0.40520 0.23987 0.04400
C 	C 	0.52878 0.79951 1.04462 -0.10800
C 	C 	0.58497 0.76099 1.03220 -0.06000
C 	C 	0.58786 0.69705 0.98560 -0.00900
C 	C 	0.62796 0.70686 0.92071 -0.02600
C 	C 	0.68244 0.71069 0.91476 -0.06100
C 	C 	0.71224 0.70422 0.96974 0.02800
I 	I 	0.78813 0.76035 0.94906 -0.11400
C 	C 	0.69825 0.66233 1.02461 -0.05100
C 	C 	0.64757 0.61672 0.04009 -0.01200
I 	I 	0.65095 0.52718 0.10325 -0.13500
C 	C 	0.59973 0.62985 0.01951 -0.00200
I 	I 	0.53093 0.56019 0.04103 -0.11500
H 	H 	0.52630 0.83074 1.00003 0.04200
H 	H 	0.49432 0.76129 1.05322 0.06900
H 	H 	0.59266 0.74234 1.08087 0.07600
H 	H 	0.61794 0.79951 1.01211 0.06900
H 	H 	0.54694 0.69119 0.97212 0.04400
H 	H 	0.61143 0.71457 0.87630 0.03500
H 	H 	0.70684 0.72342 0.86579 0.05400
C 	C 	0.88051 0.23682 0.04281 -0.13100
C 	C 	0.82559 0.24478 0.01824 -0.04200
C 	C 	0.80061 0.17395 0.00399 -0.05400
C 	C 	0.78590 0.13221 0.06778 -0.01400
C 	C 	0.74253 0.14711 0.11625 -0.06300
C 	C 	0.69483 0.18786 0.10531 0.07000
I 	I 	0.65024 0.23949 0.19208 -0.10700
C 	C 	0.67011 0.16629 0.05674 -0.07200
C 	C 	0.69949 0.17389 0.98525 0.06400
I 	I 	0.64665 0.18682 0.91527 -0.09000
C 	C 	0.75522 0.18387 0.96393 0.03700
I 	I 	0.78797 0.21815 0.86370 -0.11500
H 	H 	0.87331 0.20737 0.09075 0.07300
H 	H 	0.91187 0.20751 0.00615 0.08100
H 	H 	0.83350 0.27801 -0.02738 0.05300
H 	H 	0.79460 0.27344 0.05624 0.06100
H 	H 	0.83408 0.14346 -0.02898 0.04300
H 	H 	0.81773 0.09838 0.08031 0.03500
H 	H 	0.74052 0.12436 0.16522 0.06000
C 	C 	0.39739 1.02781 0.68664 -0.13400
C 	C 	0.38342 0.98184 0.63109 -0.04100
C 	C 	0.32065 0.97229 0.63485 -0.00400
C 	C 	0.30069 0.91193 0.68417 -0.01500
C 	C 	0.26728 0.91598 0.74507 -0.05400
C 	C 	0.23303 0.97778 0.76608 0.10300
I 	I 	0.25691 1.04209 0.83818 -0.05300
C 	C 	0.20933 0.00594 0.71975 -0.09100
C 	C 	0.24141 0.06049 0.67939 -0.00800
I 	I 	0.20226 0.16058 0.68311 -0.16700
C 	C 	0.29033 0.04433 0.63821 -0.06700
I 	I 	0.32708 0.12036 0.56527 -0.24500
H 	H 	0.36889 1.07340 0.69874 0.06700
H 	H 	0.43931 1.04968 0.66747 -0.00100
H 	H 	0.40480 0.93009 0.63032 0.04100
H 	H 	0.40235 1.00612 0.58231 0.04900
H 	H 	0.31736 0.95099 0.58559 0.02000
H 	H 	0.32031 0.86144 0.67079 0.04100
H 	H 	0.26248 0.87076 0.77791 0.07300
C 	C 	-0.00359 0.60252 0.86863 -0.18300
C 	C 	-0.01838 0.64209 0.80802 -0.04900
C 	C 	0.93248 0.69531 0.82524 -0.01800
C 	C 	0.94506 0.76013 0.85917 -0.02800
C 	C 	0.95800 0.82246 0.83154 -0.01400
C 	C 	-0.02663 0.83989 0.76005 0.00400
I 	I 	0.01301 0.93943 0.74562 -0.08700
C 	C 	0.96252 0.80320 0.70798 0.00600
C 	C 	0.92066 0.74620 0.71386 0.02800
I 	I 	0.88616 0.72968 0.62746 -0.08900
C 	C 	0.90311 0.70535 0.76830 0.03300
I 	I 	0.83481 0.63547 0.77415 -0.16000
H 	H 	0.03343 0.56879 0.85104 0.07000
H 	H 	1.00735 0.64222 0.90267 0.09800
H 	H 	-0.02807 0.60194 0.77335 0.05100
H 	H 	0.01891 0.67021 0.78080 0.05000
H 	H 	0.90031 0.67266 0.86485 0.05100
H 	H 	0.94107 0.75636 0.91281 0.05700
H 	H 	0.96333 0.86366 0.86558 0.06100
C 	C 	0.87886 0.07567 0.74420 -0.17800
C 	C 	0.82414 1.04395 0.78085 -0.01600
C 	C 	0.82737 0.96352 0.79190 -0.04100
C 	C 	0.84122 0.94711 0.85756 -0.00900
C 	C 	0.80616 0.94748 0.91679 -0.05100
C 	C 	0.74486 0.95632 0.93328 0.06200
I 	I 	0.71899 0.97854 1.03638 -0.03800
C 	C 	0.70882 0.94986 0.89180 -0.04700
C 	C 	0.72640 0.94874 0.81731 0.03900
I 	I 	0.68226 1.01652 0.76317 -0.05100
C 	C 	0.77594 0.92733 0.78296 0.02800
I 	I 	0.78169 0.88699 0.68524 -0.08400
H 	H 	0.87679 0.13360 0.74952 0.08000
H 	H 	0.91336 1.05615 0.76652 0.10600
H 	H 	0.79304 1.05774 0.75119 0.06500
H 	H 	0.81035 1.07020 0.82966 0.05800
H 	H 	0.86211 0.94158 0.75369 0.06500
H 	H 	0.88484 0.94179 0.85758 0.04700
H 	H 	0.82553 0.93994 0.95899 0.07100
C 	C 	0.32809 0.80354 0.03660 -0.15400
C 	C 	0.27870 0.83948 0.01445 -0.04600
C 	C 	0.22531 0.79277 0.02329 -0.01900
C 	C 	0.17741 0.83372 0.06593 -0.02100
C 	C 	0.12277 0.82469 0.07331 -0.04100
C 	C 	0.09493 0.76715 0.04674 0.04100
I 	I 	0.01146 0.75257 0.09855 -0.11800
C 	C 	0.11889 0.72906 0.99348 -0.02900
C 	C 	0.16596 0.75580 0.94251 0.07400
I 	I 	0.15244 0.75299 0.84305 -0.09000
C 	C 	0.21571 0.77227 -0.04525 -0.01900
I 	I 	0.28703 0.74719 0.87765 -0.06900
H 	H 	0.31805 0.79561 0.09146 0.07900
H 	H 	0.33620 0.75123 0.01292 0.06800
H 	H 	0.29172 0.85873 -0.03765 0.06000
H 	H 	0.27050 0.88962 0.04176 0.06900
H 	H 	0.23100 0.74388 0.05110 0.05000
H 	H 	0.18810 0.87061 0.10065 0.06000
H 	H 	0.09637 0.85795 0.10961 0.06300
C 	C 	0.29084 0.23654 -0.07903 -0.22100
C 	C 	0.34315 0.27014 -0.06229 -0.04700
C 	C 	0.33930 0.28930 0.01225 -0.03200
C 	C 	0.30207 0.24284 0.06062 -0.03200
C 	C 	0.31230 0.17475 0.06600 -0.05900
C 	C 	0.36170 0.13810 0.02793 0.07400
I 	I 	0.34153 0.04541 -0.01896 -0.16800
C 	C 	0.41437 0.16162 0.02089 -0.10300
C 	C 	0.42664 0.23459 0.03918 0.05000
I 	I 	0.50258 0.24556 0.07072 -0.09900
C 	C 	0.39513 0.29212 0.03180 0.01200
I 	I 	0.41886 0.39479 0.05399 -0.11700
H 	H 	0.30519 0.20151 0.87754 0.10000
H 	H 	0.26844 0.20172 -0.03918 0.07200
H 	H 	0.35465 0.31761 -0.09384 0.02000
H 	H 	0.37784 0.23255 -0.07820 0.03200
H 	H 	0.32035 0.34258 0.01876 -0.06200
H 	H 	0.26248 0.26369 0.08664 -0.03800
H 	H 	0.27859 0.14360 0.09184 0.06000
