data_crystal

_cell_length_a 21.03380
_cell_length_b 35.85050
_cell_length_c 24.71010
_cell_angle_alpha 95.75510
_cell_angle_beta  87.93100
_cell_angle_gamma 85.00070

_symmetry_space_group_name_	'P 1'
_symmetry_space_group_name_H-M	'P 1'

loop_
_symmetry_equiv_pos_as_xyz
  x,y,z

loop_
_atom_site_label
_atom_site_type_symbol
_atom_site_fract_x
_atom_site_fract_y
_atom_site_fract_z
_atom_site_charge
Eu	Eu	0.50256 0.39404 0.34474 2.29300
O 	O 	0.64021 0.37784 0.38194 -0.23800
C 	C 	0.58180 0.31207 0.31959 0.21500
O 	O 	0.55006 0.45847 0.49481 -0.14600
O 	O 	0.53454 0.41098 0.43117 -0.37100
O 	O 	0.39241 0.39107 0.19814 -0.09900
O 	O 	0.62690 0.29493 0.33879 -0.11200
O 	O 	0.53463 0.33201 0.35555 -0.38000
O 	O 	0.60121 0.40376 0.30882 -0.34500
C 	C 	0.65118 0.39371 0.34172 0.31300
O 	O 	0.46290 0.37686 0.26119 -0.30800
C 	C 	0.42009 0.40234 0.23831 0.22800
C 	C 	0.53761 0.44929 0.44773 0.21900
Eu	Eu	0.53429 0.09194 0.31439 2.19800
O 	O 	0.32783 0.10260 0.32137 -0.12100
C 	C 	0.53440 0.17966 0.35540 0.29300
O 	O 	0.44778 0.07020 0.46755 -0.09600
O 	O 	0.45982 0.09163 0.38489 -0.25300
O 	O 	0.67573 0.11281 0.33062 -0.19700
O 	O 	0.51430 0.20076 0.39524 -0.16300
O 	O 	0.56454 0.14466 0.36388 -0.36600
O 	O 	0.42983 0.10461 0.34609 -0.26600
C 	C 	0.38383 0.10142 0.30604 0.15900
O 	O 	0.62777 0.08159 0.26208 -0.40800
C 	C 	0.68137 0.08966 0.29083 0.29900
C 	C 	0.48267 0.07151 0.42738 0.16700
Eu	Eu	0.02357 0.59158 0.83568 1.73800
O 	O 	0.91300 0.56916 0.76338 -0.20100
C 	C 	0.05454 0.66548 0.89751 0.19100
O 	O 	0.08157 0.52766 0.89031 -0.24900
O 	O 	0.00268 0.52989 0.83085 -0.35000
O 	O 	0.15985 0.62708 0.79711 -0.21500
O 	O 	1.03451 0.64863 0.93403 -0.17800
O 	O 	0.04490 0.65310 0.84361 -0.38300
O 	O 	1.00583 0.59395 0.74541 -0.26800
C 	C 	0.95231 0.57614 0.72916 0.24600
O 	O 	0.12786 0.57014 0.81171 -0.36900
C 	C 	0.17287 0.59647 0.81326 0.27700
C 	C 	0.04757 0.51012 0.86000 0.21500
Eu	Eu	0.06006 0.89128 0.81332 2.21000
O 	O 	0.24533 0.89866 0.88087 -0.10000
C 	C 	0.07527 0.80322 0.82174 0.21500
O 	O 	-0.06759 0.93554 0.85468 -0.17800
O 	O 	0.03211 0.95310 0.84313 -0.36900
O 	O 	0.94610 0.84426 0.78804 -0.09200
O 	O 	0.09451 0.77025 0.80935 -0.14500
O 	O 	0.08800 0.82908 0.78491 -0.34900
O 	O 	0.14173 0.88940 0.87156 -0.34300
C 	C 	0.19852 0.90277 0.85354 0.20600
O 	O 	0.98175 0.89439 0.75164 -0.29200
C 	C 	0.93716 0.86822 0.75683 0.26400
C 	C 	-0.03351 0.96130 0.85315 0.24100
Eu	Eu	0.04846 0.42433 0.14201 1.70400
O 	O 	0.92540 0.37959 0.17746 -0.13200
C 	C 	0.05718 0.33781 0.11640 0.19700
O 	O 	0.06339 0.52018 0.05423 -0.16200
O 	O 	0.04607 0.48556 0.12316 -0.36700
O 	O 	0.18895 0.42248 0.17294 -0.27600
O 	O 	1.03472 0.34740 0.07465 -0.16800
O 	O 	0.05646 0.36356 0.16239 -0.39500
O 	O 	0.95213 0.43959 0.18923 -0.28300
C 	C 	0.90789 0.41309 0.18039 0.19800
O 	O 	0.09620 0.43954 0.22148 -0.39600
C 	C 	0.16235 0.43226 0.21737 0.29700
C 	C 	0.04332 0.49161 0.06833 0.15400
Eu	Eu	0.03555 0.11920 0.16196 2.06100
O 	O 	0.17481 0.05302 0.18925 -0.17700
C 	C 	-0.00537 0.20372 0.19258 0.21000
O 	O 	-0.03037 0.08937 0.06103 -0.23000
O 	O 	0.05504 0.06608 0.10332 -0.42500
O 	O 	0.87852 0.14866 0.22580 -0.07600
O 	O 	-0.01574 0.23463 0.21849 -0.13300
O 	O 	0.01892 0.17339 0.21906 -0.37900
O 	O 	0.08890 0.08959 0.22614 -0.38100
C 	C 	0.15346 0.08373 0.21125 0.25200
O 	O 	0.94543 0.09749 0.19597 -0.31500
C 	C 	0.91572 0.12292 0.23746 0.19000
C 	C 	0.01921 0.06883 0.05753 0.29100
Eu	Eu	0.51998 0.64856 0.67676 1.83800
O 	O 	0.66532 0.65736 0.66108 -0.26100
C 	C 	0.53190 0.73138 0.72116 0.27100
O 	O 	0.50962 0.61516 0.55567 -0.27100
O 	O 	0.55273 0.59208 0.62924 -0.41900
O 	O 	0.36897 0.65404 0.72410 -0.18400
O 	O 	0.53413 0.75700 0.75718 -0.15300
O 	O 	0.48905 0.70456 0.72717 -0.36300
O 	O 	0.60589 0.63804 0.72871 -0.37000
C 	C 	0.66168 0.63608 0.69622 0.27900
O 	O 	0.46102 0.61890 0.73551 -0.33300
C 	C 	0.40742 0.64238 0.75568 0.20200
C 	C 	0.54714 0.59209 0.57343 0.29300
Eu	Eu	0.57058 0.86763 0.61022 1.82000
O 	O 	0.43828 0.90204 0.66045 -0.22700
C 	C 	0.69185 0.81623 0.62698 0.21400
O 	O 	0.55390 0.94724 0.57115 -0.23500
O 	O 	0.49747 0.89669 0.55766 -0.40700
O 	O 	0.62779 0.94555 0.73767 -0.13100
O 	O 	0.69159 0.81689 0.57764 -0.24100
O 	O 	0.64345 0.83684 0.66009 -0.36700
O 	O 	0.49111 0.84443 0.65950 -0.40900
C 	C 	0.43867 0.87040 0.67438 0.30000
O 	O 	0.56926 0.91965 0.67216 -0.35200
C 	C 	0.62803 0.92724 0.69336 0.28500
C 	C 	0.51598 0.93095 0.54363 0.28900
C 	C 	0.53277 0.19340 0.30082 -0.07800
C 	C 	0.54255 0.16840 0.25341 0.04700
C 	C 	0.54143 0.18174 0.20220 0.11600
Br	Br	0.55058 0.14684 0.13812 -0.04800
C 	C 	0.53274 0.22042 0.19779 0.01300
C 	C 	0.52444 0.24625 0.24484 -0.00900
C 	C 	0.51593 0.28848 0.24097 0.45000
F 	F 	0.50431 0.29552 0.18790 -0.34700
F 	F 	0.46269 0.30348 0.27303 -0.42600
C 	C 	0.57577 0.30821 0.25852 0.35200
F 	F 	0.57388 0.34344 0.24039 -0.37600
F 	F 	0.62967 0.28758 0.23360 -0.34900
C 	C 	0.52332 0.23230 0.29609 0.05600
H 	H 	0.54986 0.13857 0.25594 -0.05400
H 	H 	0.53268 0.23003 0.15761 0.14200
H 	H 	0.51576 0.25185 0.33253 0.08300
C 	C 	0.09214 0.69744 0.90999 -0.00200
C 	C 	0.15818 0.69094 0.91485 -0.03700
C 	C 	0.19493 0.72123 0.92511 0.12300
Br	Br	0.28392 0.71238 0.93653 -0.05300
C 	C 	0.16645 0.75810 0.92829 -0.01800
C 	C 	0.10011 0.76517 0.92317 -0.01000
C 	C 	0.06894 0.80524 0.92594 0.44500
F 	F 	0.02462 0.81060 0.96943 -0.36200
F 	F 	0.11375 0.83095 0.93601 -0.39900
C 	C 	0.03453 0.81413 0.87369 0.32100
F 	F 	0.01553 0.85225 0.87856 -0.52800
F 	F 	0.97987 0.79529 0.86985 -0.29700
C 	C 	0.06294 0.73436 0.91559 0.01900
H 	H 	0.18102 0.66244 0.91110 0.07800
H 	H 	0.19649 0.78099 0.93520 0.12700
H 	H 	0.01158 0.73900 0.91336 0.10000
C 	C 	0.08614 0.29924 0.11865 -0.00900
C 	C 	0.14715 0.29365 0.13901 -0.04100
C 	C 	0.17485 0.25730 0.14300 0.12000
Br	Br	0.25965 0.25017 0.16768 -0.13200
C 	C 	0.14072 0.22627 0.12886 -0.01800
C 	C 	0.07890 0.23132 0.10897 -0.02900
C 	C 	0.04039 0.19791 0.09516 0.45600
F 	F 	0.02180 0.19835 0.04201 -0.37000
F 	F 	0.07759 0.16436 0.09796 -0.56600
C 	C 	-0.01998 0.19875 0.13305 0.26700
F 	F 	-0.04812 0.16548 0.12235 -0.47800
F 	F 	0.93597 0.22769 0.12199 -0.27900
C 	C 	0.05281 0.26807 0.10246 0.02300
H 	H 	0.17358 0.31752 0.15111 0.08400
H 	H 	0.16273 0.19841 0.13363 0.08800
H 	H 	0.00587 0.27256 0.08641 0.10400
C 	C 	0.57387 0.72923 0.67185 -0.09900
C 	C 	0.55126 0.71727 0.62087 -0.09600
C 	C 	0.59030 0.71673 0.57376 0.10100
Br	Br	0.55770 0.70361 0.50391 -0.16800
C 	C 	0.65286 0.72669 0.57747 -0.03500
C 	C 	0.67670 0.73807 0.62840 -0.02800
C 	C 	0.74378 0.75024 0.63290 0.44600
F 	F 	0.77563 0.72959 0.66973 -0.33500
F 	F 	0.77773 0.74250 0.58329 -0.34900
C 	C 	0.74349 0.79269 0.65196 0.37100
F 	F 	0.80163 0.80472 0.63735 -0.29800
F 	F 	0.73535 0.79852 0.70821 -0.33200
C 	C 	0.63630 0.73992 0.67533 0.03600
H 	H 	0.50288 0.70939 0.61757 0.00200
H 	H 	0.68210 0.72619 0.54042 0.12800
H 	H 	0.65379 0.74904 0.71472 0.10900
C 	C 	0.71727 0.40197 0.32807 0.00100
C 	C 	0.76794 0.39085 0.36022 -0.02900
C 	C 	0.83029 0.39841 0.34683 0.13500
Br	Br	0.89897 0.38277 0.39039 -0.07600
C 	C 	0.84265 0.41756 0.30166 -0.02100
C 	C 	0.79276 0.42943 0.26928 0.01300
C 	C 	0.80631 0.45137 0.22131 0.44100
F 	F 	0.74967 0.46827 0.20431 -0.32600
F 	F 	0.84380 0.48001 0.23759 -0.36000
C 	C 	0.83909 0.42611 0.17214 0.38000
F 	F 	0.83821 0.44662 0.12760 -0.33900
F 	F 	0.80466 0.39529 0.16021 -0.34500
C 	C 	0.73013 0.42133 0.28279 0.05100
H 	H 	0.75931 0.37623 0.39568 0.11400
H 	H 	0.89117 0.42350 0.29233 0.11500
H 	H 	0.69114 0.43020 0.25830 0.14900
C 	C 	0.19562 0.11420 0.22276 -0.04500
C 	C 	0.17121 0.14869 0.25099 -0.04900
C 	C 	0.21132 0.17692 0.26419 0.12400
Br	Br	0.17673 0.22374 0.30225 -0.14400
C 	C 	0.27679 0.17049 0.25125 -0.02700
C 	C 	0.30256 0.13591 0.22363 -0.00700
C 	C 	0.37426 0.12703 0.21388 0.43500
F 	F 	0.38725 0.11695 0.15877 -0.35300
F 	F 	0.40568 0.15866 0.22853 -0.42100
C 	C 	0.40168 0.09461 0.24577 0.38300
F 	F 	0.46724 0.09080 0.23760 -0.55500
F 	F 	0.37973 0.06089 0.22553 -0.38300
C 	C 	0.26103 0.10852 0.20782 0.02500
H 	H 	0.12137 0.15356 0.26396 0.08500
H 	H 	0.30722 0.19227 0.26394 0.12400
H 	H 	0.28005 0.08218 0.18555 0.11700
C 	C 	0.19936 0.43679 0.26706 -0.03000
C 	C 	0.16705 0.44022 0.31822 -0.03100
C 	C 	0.20022 0.44562 0.36570 0.11900
Br	Br	0.15539 0.45005 0.43497 -0.12800
C 	C 	0.26588 0.44842 0.36272 -0.01000
C 	C 	0.30000 0.44522 0.31217 -0.01500
C 	C 	0.37101 0.45108 0.31342 0.46800
F 	F 	0.37574 0.48818 0.33347 -0.33200
F 	F 	0.39776 0.42855 0.35046 -0.59300
C 	C 	0.41128 0.44345 0.25911 0.32500
F 	F 	0.47136 0.45534 0.26628 -0.34300
F 	F 	0.38417 0.46448 0.22036 -0.34800
C 	C 	0.26605 0.43863 0.26422 0.02000
H 	H 	0.11594 0.43860 0.32148 0.09100
H 	H 	0.29042 0.45328 0.40024 0.12500
H 	H 	0.28998 0.43574 0.22459 0.10400
C 	C 	0.71330 0.60602 0.69971 -0.01900
C 	C 	0.69846 0.57114 0.71518 -0.04100
C 	C 	0.74398 0.54016 0.70775 0.13200
Br	Br	0.72138 0.49201 0.72449 -0.09300
C 	C 	0.80478 0.54383 0.68529 -0.03400
C 	C 	0.82233 0.57916 0.67283 0.00800
C 	C 	0.88690 0.58328 0.64493 0.43600
F 	F 	0.88496 0.56852 0.59116 -0.32900
F 	F 	0.89670 0.62106 0.64503 -0.35100
C 	C 	0.94580 0.56359 0.66968 0.37900
F 	F 	0.99984 0.57181 0.64108 -0.29200
F 	F 	0.94480 0.52491 0.66288 -0.33800
C 	C 	0.77559 0.61014 0.68011 0.02000
H 	H 	0.65048 0.56731 0.72967 0.09900
H 	H 	0.83716 0.51874 0.67688 0.15200
H 	H 	0.78640 0.63727 0.66825 0.13600
C 	C 	0.68992 0.91496 0.66338 -0.05100
C 	C 	0.69288 0.90597 0.60673 -0.03600
C 	C 	0.75151 0.89618 0.57839 0.12900
Br	Br	0.75401 0.88472 0.50112 -0.11100
C 	C 	0.80810 0.89511 0.60627 -0.00300
C 	C 	0.80671 0.90421 0.66302 0.03700
C 	C 	0.86812 0.90398 0.69360 0.44100
F 	F 	0.91981 0.90590 0.65783 -0.34600
F 	F 	0.86476 0.93548 0.73136 -0.33700
C 	C 	0.87913 0.86814 0.72296 0.38500
F 	F 	0.88827 0.83706 0.68486 -0.30700
F 	F 	0.82611 0.86455 0.75637 -0.33400
C 	C 	0.74727 0.91410 0.69120 0.05600
H 	H 	0.65013 0.90672 0.58408 -0.04000
H 	H 	0.85294 0.88716 0.58347 0.15800
H 	H 	0.74589 0.92128 0.73494 0.13600
C 	C 	0.38359 0.85946 0.70653 -0.03400
C 	C 	0.38691 0.82454 0.72801 -0.02400
C 	C 	0.33474 0.81401 0.75771 0.11400
Br	Br	0.33943 0.76624 0.78599 -0.09100
C 	C 	0.27849 0.83797 0.76589 -0.01400
C 	C 	0.27364 0.87284 0.74425 -0.01600
C 	C 	0.21092 0.89754 0.74953 0.45000
F 	F 	0.20731 0.91979 0.70675 -0.36900
F 	F 	0.16077 0.87524 0.74525 -0.53300
C 	C 	0.20314 0.92354 0.80329 0.32300
F 	F 	0.14886 0.94780 0.80167 -0.42900
F 	F 	0.25456 0.94521 0.80695 -0.35100
C 	C 	0.32682 0.88355 0.71520 0.04500
H 	H 	0.42976 0.80534 0.72178 0.09200
H 	H 	0.23821 0.82889 0.78810 0.09600
H 	H 	0.32368 0.91041 0.69853 0.11700
C 	C 	0.23677 0.58630 0.83362 -0.02500
C 	C 	0.24634 0.55363 0.86034 -0.04100
C 	C 	0.30443 0.54451 0.88322 0.12900
Br	Br	0.31547 0.50098 0.92171 -0.10500
C 	C 	0.35390 0.56766 0.87936 -0.01800
C 	C 	0.34675 0.60009 0.85169 0.00500
C 	C 	0.40256 0.62450 0.85267 0.43200
F 	F 	0.40597 0.64051 0.90574 -0.34200
F 	F 	0.45848 0.60128 0.83995 -0.37900
C 	C 	0.40123 0.65653 0.81526 0.37900
F 	F 	0.45309 0.67677 0.82668 -0.34100
F 	F 	0.34695 0.68115 0.82631 -0.37500
C 	C 	0.28746 0.60925 0.82866 0.00700
H 	H 	0.20835 0.53544 0.86463 0.10900
H 	H 	0.39829 0.56037 0.89840 0.14100
H 	H 	0.27954 0.63411 0.80767 0.10200
C 	C 	0.74477 0.07013 0.27368 -0.01100
C 	C 	0.75153 0.04047 0.23152 -0.02600
C 	C 	0.81157 0.02149 0.21702 0.13000
Br	Br	0.82032 -0.01922 0.16024 -0.07500
C 	C 	0.86547 0.03247 0.24359 -0.01500
C 	C 	0.85985 0.06268 0.28502 0.00000
C 	C 	0.91831 0.07771 0.31059 0.43900
F 	F 	0.91133 0.07810 0.36664 -0.32000
F 	F 	0.97281 0.05432 0.29350 -0.35400
C 	C 	0.92774 0.11806 0.29643 0.38100
F 	F 	0.98973 0.12583 0.30664 -0.32900
F 	F 	0.88720 0.14392 0.32976 -0.33900
C 	C 	0.79913 0.08070 0.30048 0.02700
H 	H 	0.71049 0.03171 0.21011 0.10900
H 	H 	0.91157 0.01783 0.23082 0.13700
H 	H 	0.79447 0.10352 0.33294 0.13100
C 	C 	0.58771 0.56426 0.53654 -0.03300
C 	C 	0.64915 0.55240 0.55180 -0.02100
C 	C 	0.68869 0.52619 0.51754 0.11900
Br	Br	0.77340 0.51196 0.53790 -0.08200
C 	C 	0.66644 0.51056 0.46851 -0.01200
C 	C 	0.60429 0.52143 0.45295 -0.00900
C 	C 	0.57876 0.50370 0.40069 0.44400
F 	F 	0.55767 0.53232 0.37012 -0.32500
F 	F 	0.62689 0.48148 0.36991 -0.39700
C 	C 	0.52283 0.47944 0.41038 0.37500
F 	F 	0.50809 0.46257 0.36072 -0.46900
F 	F 	0.46943 0.50219 0.43160 -0.36000
C 	C 	0.56577 0.54912 0.48678 0.03800
H 	H 	0.66698 0.56411 0.58981 0.07900
H 	H 	0.69778 0.48988 0.44301 0.12000
H 	H 	0.51829 0.55830 0.47504 0.11900
C 	C 	0.49166 0.94717 0.49490 -0.02900
C 	C 	0.43302 0.93825 0.47411 -0.03000
C 	C 	0.41084 0.95399 0.42794 0.12600
Br	Br	0.32994 0.94282 0.40093 -0.12100
C 	C 	0.44775 0.97793 0.40145 -0.02300
C 	C 	0.50742 0.98641 0.42090 -0.00500
C 	C 	0.54911 0.01159 0.39216 0.42600
F 	F 	0.61133 0.99495 0.38748 -0.36700
F 	F 	0.52925 0.01519 0.33990 -0.50000
C 	C 	0.54853 0.05105 0.42351 0.35200
F 	F 	0.59007 0.07172 0.39713 -0.49300
F 	F 	0.56987 0.04820 0.47544 -0.35500
C 	C 	0.52849 0.97116 0.46802 0.03600
H 	H 	0.40414 0.91960 0.49405 0.09700
H 	H 	0.42966 0.98997 0.36597 0.11600
H 	H 	0.57456 -0.02268 0.48321 0.11700
C 	C 	1.01422 0.46562 0.02781 0.14700
C 	C 	0.97126 0.44093 0.04461 -0.14000
C 	C 	0.93998 0.41864 1.00639 0.19500
Br	Br	0.88183 0.38477 1.02962 -0.04200
C 	C 	0.95061 0.42123 0.95090 -0.10300
C 	C 	0.99368 0.44557 0.93246 0.22500
C 	C 	0.00191 0.44710 0.87107 0.28900
F 	F 	0.01108 0.41024 0.84704 -0.34600
F 	F 	0.94538 0.46316 0.85283 -0.30900
C 	C 	0.05827 0.46772 0.85030 0.40300
F 	F 	0.06651 0.45850 0.79456 -0.33300
F 	F 	0.11413 0.45491 0.87337 -0.38200
C 	C 	0.02561 0.46752 0.97163 -0.23000
H 	H 	0.96052 0.43973 0.08722 0.03300
H 	H 	0.92517 0.40403 0.92198 0.18000
H 	H 	0.05904 0.48638 0.95933 0.13900
C 	C 	0.04294 0.04864 0.00465 -0.02600
C 	C 	0.10656 0.03291 -0.00192 -0.03600
C 	C 	0.13179 0.01777 0.94679 0.13200
Br	Br	0.21959 -0.00128 0.93778 -0.08100
C 	C 	0.09345 0.01745 0.90182 -0.02700
C 	C 	0.02865 0.03131 0.90781 0.00100
C 	C 	-0.01378 1.03100 0.85925 0.44700
F 	F 	-0.04613 0.06634 0.85959 -0.34300
F 	F 	0.02245 1.02422 0.81066 -0.35800
C 	C 	-0.06325 1.00154 0.86065 0.37400
F 	F 	-0.10436 1.00639 0.81888 -0.31800
F 	F 	-0.09925 1.00748 0.90932 -0.37300
C 	C 	0.00400 0.04721 0.95953 0.04000
H 	H 	0.13739 0.03354 0.03228 0.09700
H 	H 	0.11459 0.00641 0.86239 0.16000
H 	H 	-0.04528 1.05910 -0.03565 0.12100
