data_crystal

_cell_length_a 15.06340
_cell_length_b 10.79470
_cell_length_c 10.99460
_cell_angle_alpha 103.73690
_cell_angle_beta  70.30870
_cell_angle_gamma 109.61490

_symmetry_space_group_name_	'P 1'
_symmetry_space_group_name_H-M	'P 1'

loop_
_symmetry_equiv_pos_as_xyz
  x,y,z

loop_
_atom_site_label
_atom_site_type_symbol
_atom_site_fract_x
_atom_site_fract_y
_atom_site_fract_z
_atom_site_charge
Mn	Mn	0.38244 0.32863 0.16130 1.18800
Mn	Mn	0.26213 1.06264 -0.01131 1.26900
Mn	Mn	0.61890 0.73787 0.95553 1.22100
Mn	Mn	0.76679 0.04665 1.04652 1.29000
Mn	Mn	0.00887 0.02799 0.01752 1.22600
C 	C 	0.44676 0.10251 0.18609 0.07900
N 	N 	0.37106 0.13920 0.17954 -0.25700
N 	N 	0.32999 1.04031 0.10137 -0.20700
N 	N 	0.38274 0.95512 0.05088 -0.08800
N 	N 	0.45613 0.99094 0.10227 -0.11400
N 	N 	0.14859 0.85468 0.15838 -0.10200
N 	N 	0.14226 0.90590 0.06347 -0.20200
N 	N 	0.04784 0.89322 0.07997 -0.21900
N 	N 	0.99376 0.83414 0.18514 -0.06700
C 	C 	0.05622 0.80810 0.23349 0.08500
C 	C 	0.22909 0.95249 0.69704 0.10600
N 	N 	0.21244 1.09489 0.86073 -0.16400
N 	N 	0.27718 1.06727 0.75193 -0.10000
N 	N 	0.09908 0.17779 0.13006 -0.22800
N 	N 	0.19098 0.18039 0.11456 -0.21700
N 	N 	0.23635 0.28426 0.18222 -0.22200
N 	N 	0.17557 0.35491 0.25135 -0.11700
N 	N 	0.12483 0.01938 0.85881 -0.20000
N 	N 	0.13280 0.91936 0.76268 -0.09800
C 	C 	0.08882 0.28735 0.22410 0.08100
N 	N 	0.64550 0.89802 0.87269 -0.24700
N 	N 	0.70297 0.01500 0.90515 -0.19900
N 	N 	0.69268 0.10681 0.85449 -0.05500
N 	N 	0.63229 0.04809 0.78075 -0.08300
N 	N 	0.89465 0.22803 0.86033 -0.11300
N 	N 	0.89157 0.16803 0.95335 -0.19900
N 	N 	0.98094 0.16740 0.94689 -0.16100
N 	N 	0.04476 0.22689 0.84637 -0.12200
N 	N 	0.85162 -0.05650 0.27221 -0.09800
N 	N 	0.88678 0.02110 0.17915 -0.20100
N 	N 	0.82193 0.08246 0.19158 -0.22800
N 	N 	0.75205 0.06381 0.30057 -0.10100
N 	N 	0.91491 0.89283 0.90912 -0.19700
N 	N 	0.82056 0.88508 0.96425 -0.18000
N 	N 	0.76557 0.77748 0.91148 -0.20800
N 	N 	0.82026 0.72353 0.80594 -0.11100
Cl	Cl	0.39161 0.24715 -0.05460 -0.82000
Cl	Cl	0.63015 0.88970 1.13717 -0.70300
C 	C 	0.60265 0.91718 0.79300 0.14500
C 	C 	0.98999 0.26503 0.79443 0.20300
C 	C 	0.76778 -0.02637 0.34820 0.10200
C 	C 	0.91357 0.79902 0.79776 0.13400
C 	C 	0.02650 0.31566 0.66450 -0.20600
C 	C 	0.94141 0.32388 0.61801 0.06700
C 	C 	0.89726 0.19578 0.53658 -0.11000
C 	C 	0.96073 0.18916 0.39872 -0.00800
C 	C 	1.00085 0.29525 0.33515 0.00600
C 	C 	0.99389 0.42877 0.41398 -0.03400
C 	C 	0.97282 0.44186 0.54584 -0.03900
C 	C 	0.97978 0.57233 0.62621 0.12800
O 	O 	0.98155 0.58399 0.73869 -0.18400
C 	C 	0.98886 0.68914 0.57139 0.01500
C 	C 	0.97812 0.80780 0.65794 0.01300
C 	C 	0.00338 0.92259 0.60144 -0.05900
C 	C 	0.03463 0.91929 0.46500 -0.04200
C 	C 	0.03348 0.79972 0.37765 0.01000
C 	C 	0.01242 0.68144 0.43235 -0.10300
C 	C 	1.01696 0.54909 0.35072 0.21600
O 	O 	0.03817 0.53816 0.23221 -0.26100
H 	H 	0.06766 0.24977 0.59036 0.06500
H 	H 	0.08027 0.41457 0.67477 0.08500
H 	H 	0.87948 0.34054 0.70429 0.03600
H 	H 	0.88845 0.10709 0.57889 0.06500
H 	H 	0.82326 0.19528 0.53689 0.07200
H 	H 	0.98225 0.09960 0.35548 0.04500
H 	H 	-0.00405 1.01463 0.66306 0.03900
H 	H 	0.05907 1.01200 0.42712 0.03000
C 	C 	0.46890 0.11796 0.31239 -0.14300
C 	C 	0.42359 0.98076 0.36374 0.03800
C 	C 	0.31096 0.92974 0.37976 -0.09400
C 	C 	0.25416 0.84199 0.48250 -0.03200
C 	C 	0.28236 0.87182 0.58981 -0.01300
C 	C 	0.38919 0.90551 0.57523 -0.02300
C 	C 	0.45392 0.97481 0.47962 -0.04200
C 	C 	0.55900 1.01478 0.47364 0.15600
O 	O 	0.60647 1.13032 0.46663 -0.20400
C 	C 	0.59645 0.92239 0.51018 -0.02400
C 	C 	0.69272 0.90324 0.45505 0.00900
C 	C 	0.71420 -0.19052 0.50205 -0.05900
C 	C 	0.65032 -0.24216 0.61579 -0.01800
C 	C 	0.57315 -0.18602 0.68852 -0.07700
C 	C 	0.53131 -0.14323 0.61604 -0.02200
C 	C 	0.42677 0.86023 0.66149 0.15300
O 	O 	0.37186 -0.18049 0.76284 -0.23500
H 	H 	0.43834 0.19518 0.38477 0.03100
H 	H 	0.54991 0.14981 0.29162 0.04700
H 	H 	0.45434 0.90603 0.28864 0.02600
H 	H 	0.27968 1.01556 0.40589 0.05300
H 	H 	0.29645 0.87370 0.28659 0.05500
H 	H 	0.17688 0.80980 0.49294 0.04300
H 	H 	0.78313 -0.21560 0.45765 0.04800
H 	H 	0.67557 -0.29706 0.66171 -0.02000
