data_crystal

_cell_length_a 31.36730
_cell_length_b 31.99520
_cell_length_c 30.07540
_cell_angle_alpha 84.39010
_cell_angle_beta  90.66670
_cell_angle_gamma 89.54880

_symmetry_space_group_name_	'P 1'
_symmetry_space_group_name_H-M	'P 1'

loop_
_symmetry_equiv_pos_as_xyz
  x,y,z

loop_
_atom_site_label
_atom_site_type_symbol
_atom_site_fract_x
_atom_site_fract_y
_atom_site_fract_z
_atom_site_charge
Eu	Eu	-0.00125 0.49534 0.76150 1.76000
O 	O 	0.04230 0.50468 0.85754 -0.27400
C 	C 	0.02614 0.41820 0.71322 0.28400
O 	O 	0.92679 0.47437 0.82973 -0.31000
O 	O 	0.96875 0.53111 0.81514 -0.40800
O 	O 	0.96883 0.52529 0.66563 -0.30100
O 	O 	0.00696 0.40215 0.74555 -0.32700
O 	O 	0.02807 0.46173 0.70565 -0.43700
O 	O 	0.06622 0.50711 0.78657 -0.42400
C 	C 	0.06832 0.51847 0.83012 0.28800
O 	O 	0.00518 0.55733 0.71777 -0.43600
C 	C 	0.99450 0.55217 0.67362 0.32700
C 	C 	0.93243 0.51163 0.83285 0.31700
Eu	Eu	0.48949 -0.00766 0.25986 1.75000
O 	O 	0.53255 1.00028 0.37296 -0.23500
C 	C 	0.51207 0.92244 0.20481 0.28300
O 	O 	0.39463 0.01961 0.27215 -0.31100
O 	O 	0.45308 0.01649 0.31718 -0.43000
O 	O 	0.47510 0.06162 0.18333 -0.31400
O 	O 	0.48778 0.90900 0.23421 -0.34500
O 	O 	0.52337 0.96461 0.20262 -0.41800
O 	O 	0.54500 -0.02781 0.30795 -0.43700
C 	C 	0.55334 1.00123 0.33877 0.31200
O 	O 	0.52034 0.05607 0.24250 -0.43100
C 	C 	0.50342 0.07748 0.20366 0.32700
C 	C 	0.40943 0.01239 0.30991 0.27800
Eu	Eu	-0.00921 0.51257 0.23975 1.80200
O 	O 	0.06295 0.54054 0.16652 -0.28200
C 	C 	-0.00915 0.59076 0.29102 0.31500
O 	O 	0.90675 0.50887 0.18669 -0.29500
O 	O 	0.96625 0.46872 0.19029 -0.41600
O 	O 	0.91630 0.46823 0.28434 -0.29100
O 	O 	-0.02584 0.60700 0.25676 -0.31200
O 	O 	0.01597 0.55497 0.28996 -0.42700
O 	O 	0.05842 0.49151 0.22534 -0.40500
C 	C 	0.06838 0.50402 0.18117 0.29900
O 	O 	-0.01308 0.46043 0.29682 -0.42200
C 	C 	0.94480 0.45253 0.30839 0.32900
C 	C 	0.92822 0.48291 0.16973 0.31800
Eu	Eu	0.71879 0.47867 -0.01161 1.81000
O 	O 	0.78903 0.45399 0.91731 -0.27000
C 	C 	0.63210 0.43933 0.96223 0.25700
O 	O 	0.76322 0.44983 0.07826 -0.31100
O 	O 	0.78806 0.47500 0.01040 -0.44800
O 	O 	0.65111 0.55967 -0.01692 -0.26000
O 	O 	0.60263 0.43660 0.93574 -0.19600
O 	O 	0.64956 0.47903 0.96550 -0.39000
O 	O 	0.73969 0.50575 0.91917 -0.40900
C 	C 	0.78032 0.49125 0.90920 0.28000
O 	O 	0.71741 0.54497 0.01175 -0.42400
C 	C 	0.68371 0.57253 -0.00079 0.32200
C 	C 	0.79389 0.45809 0.05450 0.29700
Eu	Eu	0.51019 0.05314 0.74044 1.74800
O 	O 	0.60167 0.04484 0.69645 -0.28900
C 	C 	0.54702 0.12096 0.79500 0.28600
O 	O 	0.41638 1.06461 0.69984 -0.28900
O 	O 	0.45915 1.00877 0.71845 -0.40000
O 	O 	0.50088 0.96755 0.80000 -0.24900
O 	O 	0.50916 0.13026 0.79443 -0.29100
O 	O 	0.56265 0.09481 0.76440 -0.42500
O 	O 	0.55846 -0.00035 0.73687 -0.40300
C 	C 	0.58932 0.00896 0.70456 0.31800
O 	O 	0.49440 1.03540 0.81375 -0.39800
C 	C 	0.49978 0.99299 0.82759 0.32000
C 	C 	0.42636 1.02899 0.69318 0.30500
Eu	Eu	0.23389 0.01025 0.51355 1.76200
O 	O 	0.28941 0.94438 0.47564 -0.29700
C 	C 	0.19517 0.93849 0.45987 0.29800
O 	O 	0.24605 -0.00638 0.62966 -0.28400
O 	O 	0.26355 0.04064 0.57202 -0.42600
O 	O 	0.14777 0.05468 0.49052 -0.31600
O 	O 	0.19720 0.91810 0.42766 -0.21700
O 	O 	0.20514 0.98121 0.45366 -0.39900
O 	O 	0.29848 0.01366 0.47811 -0.42400
C 	C 	0.31282 0.97431 0.46816 0.32500
O 	O 	0.21614 0.07581 0.48186 -0.42200
C 	C 	0.17236 0.08108 0.47405 0.29100
C 	C 	0.27433 0.01082 0.60730 0.27300
Eu	Eu	0.02061 0.77598 0.49381 1.77500
O 	O 	0.94457 0.82994 0.45316 -0.28400
C 	C 	-0.00035 0.72220 0.41764 0.20800
O 	O 	0.06199 0.86114 0.48775 -0.32200
O 	O 	0.06507 0.80687 0.54113 -0.42700
O 	O 	0.07629 0.69956 0.51687 -0.31300
O 	O 	1.03210 0.73803 0.40176 -0.26100
O 	O 	0.97632 0.74330 0.44782 -0.39500
O 	O 	0.96387 0.80700 0.52443 -0.40800
C 	C 	0.93530 0.82622 0.49266 0.29200
O 	O 	0.01419 0.71880 0.54513 -0.41800
C 	C 	0.04449 0.68843 0.53755 0.31300
C 	C 	0.07749 0.84656 0.52331 0.31600
Eu	Eu	0.76562 0.03475 0.50876 1.76900
O 	O 	0.67257 0.04000 0.46907 -0.29400
C 	C 	0.83016 0.10541 0.51340 0.28500
O 	O 	0.72300 1.02597 0.59822 -0.29800
O 	O 	0.71129 0.99318 0.53604 -0.39800
O 	O 	0.79353 0.95981 0.56841 -0.29900
O 	O 	0.80154 0.12985 0.52031 -0.27900
O 	O 	0.82194 0.07507 0.48452 -0.41800
O 	O 	0.73781 0.03872 0.43755 -0.41100
C 	C 	0.69349 0.04291 0.43513 0.32000
O 	O 	0.80411 0.97667 0.49494 -0.39500
C 	C 	0.80701 0.94899 0.53343 0.31500
C 	C 	0.70205 1.00031 0.57994 0.28200
Eu	Eu	0.01457 0.28352 0.48641 1.80900
O 	O 	0.03723 0.23623 0.40832 -0.30200
C 	C 	0.02989 0.33426 0.39341 0.28700
O 	O 	0.93506 0.23313 0.47746 -0.30700
O 	O 	0.97896 0.23889 0.53643 -0.41700
O 	O 	0.99982 0.32454 0.57369 -0.31600
O 	O 	0.04914 0.32694 0.35993 -0.21300
O 	O 	0.05047 0.32671 0.43494 -0.41200
O 	O 	0.06286 0.23111 0.47889 -0.42200
C 	C 	0.06442 0.22186 0.43487 0.32000
O 	O 	0.05919 0.30325 0.54042 -0.43900
C 	C 	1.03846 0.32017 0.57511 0.37300
C 	C 	0.94952 0.21684 0.51290 0.27900
Eu	Eu	0.50560 0.76224 -0.01845 1.77500
O 	O 	0.57075 0.67961 0.99762 -0.24100
C 	C 	0.48704 0.85158 0.93530 0.29400
O 	O 	0.43310 0.70321 -0.03524 -0.33300
O 	O 	0.49037 0.69583 0.01016 -0.42400
O 	O 	0.48285 0.82316 0.04892 -0.32400
O 	O 	0.45429 0.83372 0.92612 -0.30600
O 	O 	0.52164 0.82865 0.95423 -0.41800
O 	O 	0.57122 0.74332 -0.04295 -0.44600
C 	C 	0.59129 0.70962 0.98221 0.33600
O 	O 	0.53674 0.77612 0.04716 -0.41900
C 	C 	0.51744 0.81063 0.06369 0.32400
C 	C 	0.45838 0.67922 -0.01470 0.31500
Eu	Eu	0.26472 0.50614 0.00263 1.81300
O 	O 	0.23280 0.57893 0.94777 -0.30600
C 	C 	0.33832 0.56715 0.99964 0.31500
O 	O 	0.21398 0.50774 0.09088 -0.30600
O 	O 	0.21157 0.46650 0.03393 -0.44600
O 	O 	0.30670 0.45046 0.06780 -0.34300
O 	O 	0.31694 0.57974 1.02932 -0.30500
O 	O 	0.31955 0.54241 0.96946 -0.42200
O 	O 	0.22688 0.51065 0.93706 -0.41000
C 	C 	0.21488 0.55252 0.92789 0.30800
O 	O 	0.30014 0.44546 -0.00617 -0.43600
C 	C 	0.31490 0.43057 0.03638 0.29300
C 	C 	0.19474 0.48126 0.07203 0.29400
Eu	Eu	0.51426 0.23449 -0.02830 1.80700
O 	O 	0.43656 0.29849 0.94744 -0.25800
C 	C 	0.46998 0.19470 0.89671 0.28800
O 	O 	0.55392 0.31740 -0.02357 -0.30800
O 	O 	0.57411 0.25350 0.00763 -0.43400
O 	O 	0.56857 0.16763 0.02966 -0.28900
O 	O 	0.44409 0.18040 0.87212 -0.19700
O 	O 	0.45615 0.21477 0.93313 -0.38800
O 	O 	0.47642 0.28022 0.00982 -0.42000
C 	C 	0.44084 0.29858 0.98769 0.33800
O 	O 	0.49940 0.18710 0.03091 -0.41400
C 	C 	0.53719 0.17287 0.05217 0.28600
C 	C 	0.57914 0.29657 0.00061 0.32200
C 	C 	0.04906 0.39207 0.68137 -0.06900
C 	C 	0.09710 0.40402 0.67990 -0.06800
C 	C 	0.12858 0.36812 0.68228 0.00700
C 	C 	0.13255 0.34228 0.65033 -0.08100
C 	C 	0.10385 0.34359 0.61116 0.10900
I 	I 	0.13284 0.36494 0.54969 -0.08700
C 	C 	0.06315 0.32996 0.61482 -0.17500
C 	C 	1.04448 0.31822 0.65943 0.13900
I 	I 	1.02567 0.25524 0.67523 -0.08600
C 	C 	0.04034 0.34535 0.69053 -0.10500
H 	H 	0.03494 0.40210 0.64795 0.05900
H 	H 	0.10541 0.42312 0.70764 0.05000
H 	H 	0.10297 0.42483 0.64882 0.05400
H 	H 	0.15063 0.36449 0.71036 0.03600
H 	H 	0.15800 0.31909 0.65311 0.06600
H 	H 	1.02948 0.33313 0.72323 0.09700
C 	C 	0.58820 0.03313 0.32930 -0.12400
C 	C 	0.58079 0.07352 0.35175 -0.05000
C 	C 	0.60628 0.10808 0.32797 -0.00100
C 	C 	0.64704 0.11467 0.33754 -0.07000
C 	C 	0.66761 0.09646 0.37908 0.09000
I 	I 	0.69017 0.14309 0.41935 -0.11500
C 	C 	0.67219 0.05485 0.39169 -0.12600
C 	C 	0.66617 1.02104 0.36104 0.08700
I 	I 	0.71807 0.97832 0.35742 -0.06200
C 	C 	0.63178 1.01236 0.33597 -0.01600
H 	H 	0.58539 0.04206 0.29289 0.06800
H 	H 	0.58778 0.06894 0.38822 0.06300
H 	H 	0.54666 0.08296 0.34791 0.05200
H 	H 	0.59170 0.12647 0.29956 0.04100
H 	H 	0.66293 0.14037 0.31857 0.06400
H 	H 	0.63560 0.98616 0.31601 0.05900
C 	C 	0.98610 0.67845 0.40858 -0.02700
C 	C 	0.94163 0.67924 0.38682 -0.08200
C 	C 	0.91856 0.64156 0.40705 0.01400
C 	C 	0.92620 0.60341 0.39522 -0.07600
C 	C 	0.94203 0.59655 0.35097 0.10900
I 	I 	0.89504 0.56591 0.31417 -0.10900
C 	C 	-0.01870 0.60615 0.33449 -0.14000
C 	C 	0.01854 0.62340 0.35896 0.09100
I 	I 	0.08098 0.60053 0.34538 -0.06500
C 	C 	0.02033 0.65515 0.38552 -0.07800
H 	H 	0.98481 0.66134 0.44260 0.05700
H 	H 	0.94323 0.68057 0.34978 0.07300
H 	H 	0.92309 0.70737 0.39457 0.06900
H 	H 	0.90079 0.64439 0.43725 0.04100
H 	H 	0.91063 0.57731 0.41393 0.07200
H 	H 	0.05210 0.66283 0.39638 0.07500
C 	C 	0.38128 -0.00459 0.34778 -0.13200
C 	C 	0.38747 0.94724 0.35453 -0.03700
C 	C 	0.42390 0.93378 0.38577 0.00000
C 	C 	0.41852 0.92669 0.42984 -0.06000
C 	C 	0.37650 0.93153 0.45050 0.08000
I 	I 	0.35384 0.87405 0.48310 -0.09100
C 	C 	0.35551 0.96917 0.44786 -0.09700
C 	C 	0.37792 0.00827 0.43087 0.05600
I 	I 	0.39665 0.04919 0.47832 -0.09300
C 	C 	0.39031 0.01873 0.38854 -0.02500
H 	H 	0.34750 1.00187 0.33761 0.09000
H 	H 	0.39321 0.93441 0.32202 0.02400
H 	H 	0.35733 0.93227 0.36654 0.05400
H 	H 	0.45530 0.92991 0.37204 0.03100
H 	H 	0.44496 0.91423 0.45064 0.06400
H 	H 	0.40680 0.04834 0.38236 0.06300
C 	C 	-0.01350 0.35524 0.38849 -0.16700
C 	C 	0.95058 0.32719 0.40920 0.03900
C 	C 	0.91107 0.34970 0.42336 -0.04100
C 	C 	0.88894 0.37991 0.39877 -0.04600
C 	C 	0.90175 0.40052 0.35496 0.07800
I 	I 	0.86023 0.38925 0.30120 -0.06700
C 	C 	0.93527 0.42709 0.35072 -0.09200
C 	C 	-0.03459 0.43052 0.38857 0.05100
I 	I 	-0.02617 0.48943 0.41349 -0.11500
C 	C 	-0.01169 0.39754 0.40673 -0.01800
H 	H 	-0.02029 0.36009 0.35191 0.08700
H 	H 	0.96291 0.30818 0.43926 -0.12700
H 	H 	0.94081 0.30465 0.38519 0.03200
H 	H 	0.89739 0.33765 0.45491 0.03800
H 	H 	0.85888 0.39004 0.41169 0.05800
H 	H 	0.00875 0.40139 0.43533 0.03700
C 	C 	0.63885 0.71023 -0.01124 -0.13000
C 	C 	0.65119 0.70099 0.03809 -0.05100
C 	C 	0.69830 0.70582 0.04379 -0.00300
C 	C 	0.72539 0.67390 0.04158 -0.06900
C 	C 	0.71084 0.63069 0.03845 0.08700
I 	I 	0.72530 0.59017 0.09725 -0.08800
C 	C 	0.68919 0.61817 0.00270 -0.11500
C 	C 	0.68026 0.64656 -0.03913 0.08100
I 	I 	0.69824 0.62418 -0.10051 -0.13000
C 	C 	0.66009 0.68423 -0.04433 -0.05400
H 	H 	0.64888 0.74313 0.97907 0.09200
H 	H 	0.64011 0.66947 0.05176 0.06600
H 	H 	0.63505 0.72413 0.05767 0.05000
H 	H 	0.71074 0.73670 0.04797 0.03700
H 	H 	0.75886 0.67882 0.04842 0.06200
H 	H 	0.65729 0.69884 0.92168 0.07800
C 	C 	0.64507 0.40010 0.99210 -0.07700
C 	C 	0.68989 0.40074 0.01279 -0.08000
C 	C 	0.70424 0.36262 0.04366 0.00800
C 	C 	0.68888 0.32322 0.04880 -0.07800
C 	C 	0.65424 0.30481 0.02338 0.08900
I 	I 	0.67359 0.25110 -0.00795 -0.12300
C 	C 	0.61303 0.31758 0.02388 -0.12600
C 	C 	0.59997 0.35544 0.04467 0.08800
I 	I 	0.55387 0.34966 0.09546 -0.10100
C 	C 	0.61332 0.39352 0.02928 -0.05400
H 	H 	0.64461 0.37424 0.96993 0.07300
H 	H 	0.69105 0.42754 0.03361 -0.09300
H 	H 	0.71367 0.40558 -0.01425 -0.07500
H 	H 	0.73221 0.36808 0.06375 0.03000
H 	H 	0.70683 0.30079 0.07114 0.06300
H 	H 	0.60241 0.42050 0.04536 0.05400
C 	C 	0.32023 -0.00233 0.61640 -0.12500
C 	C 	0.32808 -0.04524 0.59805 -0.05800
C 	C 	0.37296 0.94624 0.58409 0.01200
C 	C 	0.40774 0.94892 0.60961 -0.06500
C 	C 	0.40903 0.96665 0.65312 0.08800
I 	I 	0.42511 0.92187 0.70785 -0.05600
C 	C 	0.40663 1.00878 0.65556 -0.09300
C 	C 	0.38933 0.03713 0.61717 0.05600
I 	I 	0.42617 0.08929 0.59192 -0.11100
C 	C 	0.35097 0.03148 0.59830 -0.02600
H 	H 	0.32416 0.99332 0.65338 0.09300
H 	H 	0.30725 -0.04807 0.56832 0.00800
H 	H 	0.31868 -0.07079 0.62371 0.04100
H 	H 	0.37699 0.93412 0.55208 0.04300
H 	H 	0.43763 0.93787 0.59727 0.07100
H 	H 	0.34185 0.05210 0.56897 0.06300
C 	C 	0.01769 0.57684 0.63605 -0.12100
C 	C 	0.04727 0.54661 0.61332 -0.07500
C 	C 	0.09087 0.56489 0.60813 -0.00000
C 	C 	0.09899 0.59739 0.57851 -0.07100
C 	C 	0.06740 0.61450 0.54510 0.09100
I 	I 	0.09061 0.61383 0.47936 -0.09800
C 	C 	0.03908 0.64366 0.55585 -0.13100
C 	C 	0.99550 0.62937 0.57018 0.09000
I 	I 	0.94127 0.65446 0.53339 -0.10400
C 	C 	0.98636 0.59942 0.60334 -0.02400
H 	H 	0.03664 0.60108 0.65136 0.07400
H 	H 	1.03421 0.53949 0.58034 0.07600
H 	H 	0.05092 0.51576 0.63357 0.05300
H 	H 	0.11604 0.55282 0.63097 0.03500
H 	H 	0.13111 0.60950 0.57653 0.06800
H 	H 	0.95307 0.59129 0.60764 0.06300
C 	C 	0.66521 0.97833 0.60405 -0.03900
C 	C 	0.64671 0.94358 0.57728 -0.07900
C 	C 	0.61971 0.91071 0.60271 0.01700
C 	C 	0.58984 0.91743 0.63272 -0.08100
C 	C 	0.58008 0.95798 0.64988 0.12900
I 	I 	0.52059 -0.01489 0.62928 -0.17400
C 	C 	0.60579 -0.02470 0.67925 -0.14800
C 	C 	0.65096 -0.03810 0.68573 0.09700
I 	I 	0.67374 -0.05693 0.75099 -0.09000
C 	C 	0.67796 -0.03818 0.65136 -0.07300
H 	H 	0.64037 0.00308 0.60511 0.04700
H 	H 	0.67334 0.92638 0.56288 0.07200
H 	H 	0.62739 0.95854 0.54874 0.07300
H 	H 	0.62204 0.87924 0.59243 0.03600
H 	H 	0.57016 0.89120 0.64478 0.07200
H 	H 	0.71014 -0.04995 0.65773 0.06700
C 	C 	0.83867 0.45039 0.07191 -0.09600
C 	C 	0.85944 0.41509 0.04729 -0.05800
C 	C 	0.90568 0.42065 0.03588 0.00100
C 	C 	0.93665 0.42630 0.06541 -0.06700
C 	C 	0.92999 0.43246 0.11278 0.09000
I 	I 	0.95234 0.38178 0.15834 -0.07300
C 	C 	0.91629 0.46982 0.12541 -0.11100
C 	C 	0.89444 0.50142 0.09289 0.07900
I 	I 	0.91120 0.56589 0.08893 -0.08900
C 	C 	0.86182 0.49192 0.06671 -0.03500
H 	H 	0.83714 0.43926 0.10814 0.07600
H 	H 	0.84225 0.41147 0.01531 0.04800
H 	H 	0.85597 0.38462 0.06803 0.04900
H 	H 	0.91490 0.41635 0.00199 0.03900
H 	H 	0.96921 0.42598 0.05406 0.06600
H 	H 	0.84940 0.51669 0.04275 0.05900
C 	C 	0.53251 0.89293 0.17433 -0.08500
C 	C 	0.57387 0.87449 0.19657 -0.05900
C 	C 	0.61017 0.87357 0.16524 -0.00200
C 	C 	0.61081 0.86133 0.12394 -0.06900
C 	C 	0.57701 0.84835 0.09287 0.08300
I 	I 	0.60059 0.85575 0.02589 -0.12300
C 	C 	0.53805 0.83054 0.10053 -0.11700
C 	C 	0.51354 0.82555 0.14273 0.07600
I 	I 	0.47836 0.76913 0.15735 -0.09900
C 	C 	0.50405 0.85631 0.16811 -0.04800
H 	H 	0.53855 0.91105 0.14151 0.06700
H 	H 	0.56963 0.84216 0.21328 0.05600
H 	H 	0.58437 0.89348 0.22375 0.05100
H 	H 	0.64060 0.88249 0.17879 0.03900
H 	H 	0.64211 0.86372 0.10905 0.06300
H 	H 	0.48015 0.84889 0.19324 0.06800
C 	C 	0.15143 0.46665 0.08783 -0.09500
C 	C 	0.13148 0.43799 0.05463 -0.05600
C 	C 	0.09309 0.41293 0.07018 -0.00500
C 	C 	0.06123 0.42609 0.09446 -0.06900
C 	C 	0.05975 0.46633 0.11423 0.08100
I 	I 	0.01715 0.51120 0.08211 -0.12200
C 	C 	0.08214 0.47229 0.15177 -0.11100
C 	C 	0.12126 0.44702 0.16397 0.07500
I 	I 	0.12763 0.41387 0.22814 -0.06700
C 	C 	0.15340 0.44486 0.13495 -0.03400
H 	H 	0.13197 0.49589 0.08680 0.07200
H 	H 	0.15564 0.41449 0.04623 0.05600
H 	H 	0.12282 0.45741 0.02308 0.04900
H 	H 	0.08944 0.38270 0.05726 0.03200
H 	H 	0.03413 0.40568 0.10017 0.05600
H 	H 	0.18086 0.42526 0.14482 0.05700
C 	C 	0.81397 0.52148 0.88996 -0.08300
C 	C 	0.79673 0.56702 0.88583 -0.06200
C 	C 	0.82837 0.60247 0.88142 0.00300
C 	C 	0.86450 0.60499 0.85809 -0.06600
C 	C 	0.88437 0.57187 0.83439 0.08700
I 	I 	0.89613 0.59034 0.76569 -0.11200
C 	C 	0.90132 0.53629 0.85578 -0.11500
C 	C 	0.89288 0.52314 0.90353 0.08100
I 	I 	0.94508 0.51238 0.94859 -0.05800
C 	C 	0.85346 0.51704 0.91938 -0.04000
H 	H 	0.82125 0.51259 0.85597 0.06900
H 	H 	0.77893 0.57169 0.91676 0.06500
H 	H 	0.77373 0.57134 0.85728 0.06700
H 	H 	0.81818 0.63096 0.89513 0.04600
H 	H 	0.88019 0.63514 0.85447 0.06800
H 	H 	0.84972 0.50882 0.95494 0.06800
C 	C 	0.49005 0.89871 0.92832 -0.08600
C 	C 	0.47943 0.91743 0.97262 -0.06600
C 	C 	0.50291 0.95661 0.98181 0.01000
C 	C 	0.50350 0.99216 0.95455 -0.06900
C 	C 	0.48709 0.99691 0.90811 0.09200
I 	I 	0.43358 1.03755 0.89594 -0.04400
C 	C 	0.50753 0.97918 0.87521 -0.11600
C 	C 	0.54127 0.94711 0.88600 0.08000
I 	I 	0.60377 0.95961 0.86325 -0.05800
C 	C 	0.53380 0.91086 0.91061 -0.03800
H 	H 	0.46544 0.91006 0.90292 0.07500
H 	H 	0.48630 0.89393 1.00152 0.06900
H 	H 	0.44468 0.92416 0.97342 0.06200
H 	H 	0.51770 0.95691 1.01452 0.04700
H 	H 	0.51862 1.01907 0.96674 0.07800
H 	H 	0.56064 0.88998 0.91883 0.07600
C 	C 	0.10292 0.54836 0.84189 -0.09100
C 	C 	0.09931 0.58876 0.80955 -0.05600
C 	C 	0.12530 0.62569 0.82132 -0.00300
C 	C 	0.16461 0.62482 0.83928 -0.06400
C 	C 	0.18956 0.58748 0.85716 0.08500
I 	I 	0.25141 0.58325 0.82957 -0.08300
C 	C 	0.17981 0.56589 0.89661 -0.10900
C 	C 	0.13567 0.56543 0.91472 0.06900
I 	I 	0.12585 0.57491 0.98283 -0.09300
C 	C 	0.10094 0.55829 0.89010 -0.03500
H 	H 	0.13343 0.53211 0.83591 0.07000
H 	H 	0.06529 0.59952 0.80796 0.04800
H 	H 	0.10869 0.58157 0.77543 0.05300
H 	H 	0.11239 0.65640 0.80976 0.03900
H 	H 	0.18033 0.65471 0.84089 0.06600
H 	H 	0.06988 0.56107 0.90507 0.06900
C 	C 	0.57672 0.13685 0.82907 -0.08800
C 	C 	0.58684 0.18334 0.81677 -0.05800
C 	C 	0.60973 0.20191 0.85415 -0.00900
C 	C 	0.58862 0.21920 0.88601 -0.04300
C 	C 	0.54179 0.22255 0.88542 -0.04700
I 	I 	0.51785 0.28484 0.87290 -0.17200
C 	C 	0.51608 0.18869 0.88993 -0.14900
C 	C 	0.53299 0.14519 0.90032 0.06300
I 	I 	0.51125 0.11179 0.95987 -0.11900
C 	C 	0.56046 0.12449 0.87593 -0.03400
H 	H 	0.60755 0.11972 0.82701 0.06700
H 	H 	0.55739 0.20148 0.80675 0.06900
H 	H 	0.60758 0.18629 0.78692 0.05200
H 	H 	0.64421 0.20076 0.85549 0.04500
H 	H 	0.60636 0.23396 0.91121 0.03200
H 	H 	0.56954 0.09303 0.88955 0.05200
C 	C 	0.54098 0.16653 0.10245 -0.08600
C 	C 	0.57475 0.19722 0.11788 -0.06300
C 	C 	0.57439 0.20532 0.16646 0.00100
C 	C 	0.56960 0.17642 0.20124 -0.07100
C 	C 	0.55873 0.13207 0.19819 0.09000
I 	I 	0.61046 0.08889 0.20880 -0.12100
C 	C 	0.51852 0.12034 0.18893 -0.12300
C 	C 	0.48834 0.15060 0.16410 0.08200
I 	I 	0.42766 0.16122 0.19099 -0.09500
C 	C 	0.49847 0.17188 0.12491 -0.03900
H 	H 	0.55279 0.13378 0.11032 0.07000
H 	H 	0.57033 0.22836 0.09830 0.05900
H 	H 	0.60706 0.18548 0.11019 0.06200
H 	H 	0.58318 0.23662 0.17384 0.04000
H 	H 	0.57432 0.18597 0.23448 0.05800
H 	H 	0.47595 0.19500 0.10977 0.06900
C 	C 	0.89236 0.84091 0.50773 -0.08900
C 	C 	0.87131 0.80471 0.53665 -0.05700
C 	C 	0.82486 0.80091 0.52812 -0.00400
C 	C 	0.79527 0.83112 0.52067 -0.06500
C 	C 	0.79676 0.87794 0.51476 0.08100
I 	I 	0.73860 0.90067 0.48193 -0.08800
C 	C 	0.82367 0.90587 0.53194 -0.10200
C 	C 	0.86722 0.89852 0.55242 0.07200
I 	I 	0.88842 0.93686 0.60254 -0.07400
C 	C 	0.89864 0.87585 0.53658 -0.03600
H 	H 	0.87267 0.85183 0.47775 0.07700
H 	H 	0.87648 0.80677 0.57308 0.06100
H 	H 	0.88579 0.77408 0.53001 0.05400
H 	H 	0.81340 0.76890 0.52958 0.03900
H 	H 	0.76377 0.81873 0.51543 0.06200
H 	H 	0.92996 0.87794 0.55184 0.06900
C 	C 	0.93825 0.17204 0.52841 -0.08600
C 	C 	0.97875 0.14589 0.54175 -0.06300
C 	C 	0.97205 0.10441 0.56934 0.00400
C 	C 	0.94148 0.07626 0.56372 -0.06600
C 	C 	0.90544 0.08140 0.53154 0.07800
I 	I 	0.90903 0.03784 0.48271 -0.08100
C 	C 	0.87194 0.10761 0.53737 -0.11800
C 	C 	0.87605 0.13996 0.56969 0.07700
I 	I 	0.83382 0.13860 0.62424 -0.10100
C 	C 	0.90613 0.16978 0.56560 -0.03700
H 	H 	0.92391 0.15911 0.49876 0.07600
H 	H 	1.00026 0.16443 0.56182 0.06300
H 	H 	0.99625 0.13987 0.51105 0.05800
H 	H 	0.99678 0.09499 0.59377 0.04200
H 	H 	0.94384 0.04618 0.58361 0.06300
H 	H 	0.90886 0.19140 0.59102 0.06500
C 	C 	0.17904 0.91746 0.50366 -0.15800
C 	C 	0.21315 0.91335 0.54116 0.01100
C 	C 	0.19679 0.90568 0.58846 -0.04600
C 	C 	0.16560 0.87957 0.60334 -0.05000
C 	C 	0.13870 0.85417 0.57576 0.07900
I 	I 	0.14924 0.78852 0.58985 -0.08800
C 	C 	0.10811 0.87178 0.54732 -0.11400
C 	C 	0.10639 0.91808 0.53648 0.07300
I 	I 	0.05094 0.95134 0.55192 -0.09400
C 	C 	0.13906 0.93932 0.51714 -0.03200
H 	H 	0.17121 0.88484 0.49682 0.08600
H 	H 	0.23210 0.94239 0.53965 -0.11700
H 	H 	0.23572 0.88757 0.53536 0.04000
H 	H 	0.21439 0.92075 0.61348 0.04700
H 	H 	0.16072 0.87524 0.63911 0.06000
H 	H 	0.13709 0.97322 0.51178 0.02800
C 	C 	0.15672 0.11952 0.44463 -0.09000
C 	C 	0.17924 0.12150 0.39927 -0.05800
C 	C 	0.19297 0.16434 0.38135 -0.00200
C 	C 	0.17486 0.20180 0.38553 -0.06500
C 	C 	0.13800 0.21509 0.41184 0.08200
I 	I 	0.14773 0.27779 0.42908 -0.06500
C 	C 	0.09968 0.19618 0.41982 -0.10800
C 	C 	0.08849 0.15188 0.41415 0.07000
I 	I 	0.02804 0.13888 0.38606 -0.10100
C 	C 	0.10977 0.11862 0.43416 -0.04100
H 	H 	0.16463 0.14704 0.46298 0.07000
H 	H 	0.15941 0.10817 0.37320 0.05200
H 	H 	0.20853 0.10169 0.40164 0.05400
H 	H 	0.22168 0.16472 0.36151 0.03800
H 	H 	0.19282 0.22786 0.36985 0.06500
H 	H 	0.09558 0.08800 0.43244 0.06300
C 	C 	0.38533 0.57578 -0.00265 -0.15600
C 	C 	0.41039 0.53488 1.01244 -0.00400
C 	C 	0.45527 0.53175 -0.00463 -0.03500
C 	C 	0.48527 0.56125 -0.00410 -0.05900
C 	C 	0.47844 0.60434 0.00809 0.09100
I 	I 	0.51001 0.61586 0.06854 -0.06800
C 	C 	0.45661 0.63354 -0.01934 -0.13400
C 	C 	0.42996 0.62027 0.94345 0.09200
I 	I 	0.44385 0.64367 0.87704 -0.08300
C 	C 	0.39707 0.59412 0.95085 -0.00600
H 	H 	0.39223 0.59896 0.02172 0.08100
H 	H 	0.39288 0.50748 1.00151 0.03700
H 	H 	0.41166 0.53058 1.04956 0.04700
H 	H 	0.46513 0.50138 -0.01414 0.04600
H 	H 	0.51742 0.55296 -0.01286 0.06700
H 	H 	0.37959 0.58445 0.92238 0.06600
C 	C 	0.34035 0.39035 0.04428 -0.14200
C 	C 	0.31366 0.35325 1.03148 -0.00100
C 	C 	0.31851 0.31946 0.06874 -0.04300
C 	C 	0.35522 0.29901 0.07657 -0.04600
C 	C 	0.38503 0.29060 0.04118 0.05000
I 	I 	0.39003 0.22418 0.03793 -0.09400
C 	C 	0.40854 0.31818 1.01422 -0.07500
C 	C 	0.41157 0.36553 1.01271 0.05500
I 	I 	0.46940 0.39369 0.98732 -0.04600
C 	C 	0.38254 0.39498 1.02134 0.00300
H 	H 	0.34843 0.38685 0.08077 0.07700
H 	H 	0.32327 0.34246 0.99900 0.05700
H 	H 	0.27918 0.36163 1.02833 0.05000
H 	H 	0.29557 0.31871 0.09548 0.04500
H 	H 	0.35799 0.27895 0.10764 0.05800
H 	H 	0.39321 0.42724 1.01625 0.04600
