data_crystal

_cell_length_a 15.45850
_cell_length_b 12.96250
_cell_length_c 12.23030
_cell_angle_alpha 113.51660
_cell_angle_beta  81.03310
_cell_angle_gamma 82.32460

_symmetry_space_group_name_	'P 1'
_symmetry_space_group_name_H-M	'P 1'

loop_
_symmetry_equiv_pos_as_xyz
  x,y,z

loop_
_atom_site_label
_atom_site_type_symbol
_atom_site_fract_x
_atom_site_fract_y
_atom_site_fract_z
_atom_site_charge
Mn	Mn	0.35650 0.12188 0.16343 1.21500
Mn	Mn	0.24600 -0.08626 0.01070 1.25100
Mn	Mn	0.66154 1.00840 0.90044 1.24000
Mn	Mn	0.79840 0.18735 1.02810 1.27300
Mn	Mn	0.01867 0.03373 0.01358 1.23300
C 	C 	0.37041 -0.04149 0.28467 -0.00500
N 	N 	0.33368 -0.00432 0.21224 -0.23500
N 	N 	0.28616 -0.07954 0.16077 -0.22400
N 	N 	0.29231 0.83927 0.20053 -0.03300
N 	N 	0.34493 0.86134 0.27940 -0.03000
N 	N 	0.14163 0.77594 0.09187 -0.10600
N 	N 	0.13672 0.85746 0.05363 -0.19600
N 	N 	0.05225 0.90155 0.06214 -0.17900
N 	N 	0.99854 0.85178 0.11153 -0.08600
C 	C 	0.05584 0.77300 0.12820 0.11200
C 	C 	0.21559 0.89301 0.68753 0.08500
N 	N 	0.20686 0.91289 0.86638 -0.14900
N 	N 	0.26456 0.87724 0.76199 -0.07000
N 	N 	0.09909 0.12132 0.12096 -0.22800
N 	N 	0.18485 0.07860 0.10170 -0.21000
N 	N 	0.22388 0.15563 0.17152 -0.21000
N 	N 	0.16361 0.24895 0.24850 -0.09300
N 	N 	0.12523 -0.04847 0.86007 -0.21100
N 	N 	0.12751 0.93831 0.74564 -0.04300
C 	C 	0.08527 0.22756 0.21750 0.04200
N 	N 	0.68819 1.13265 0.84841 -0.22700
N 	N 	0.74547 0.19700 0.89074 -0.22100
N 	N 	0.73428 0.28796 0.86624 -0.06000
N 	N 	0.66972 0.28343 0.80552 -0.10300
N 	N 	0.92667 0.25753 0.87564 -0.09000
N 	N 	0.91596 0.21628 0.95954 -0.19700
N 	N 	0.99472 0.16500 0.96281 -0.17700
N 	N 	0.05859 0.17610 0.88550 -0.08100
N 	N 	0.91505 0.09413 0.26210 -0.09700
N 	N 	0.91731 0.11025 0.16175 -0.21000
N 	N 	0.84168 0.17621 0.17078 -0.21200
N 	N 	0.78694 0.20541 0.27810 -0.09200
N 	N 	0.92790 0.95678 0.91546 -0.18500
N 	N 	0.84802 1.01770 0.92652 -0.17900
N 	N 	0.79544 0.94982 0.87557 -0.20000
N 	N 	0.83819 0.84121 0.82910 -0.09600
Cl	Cl	0.36830 -0.01621 -0.02857 -0.86300
Cl	Cl	0.66873 1.13920 1.08834 -0.68400
C 	C 	0.64022 1.18775 0.79736 0.14000
C 	C 	1.01643 0.23315 0.83120 0.07300
C 	C 	0.83373 0.15476 0.33474 0.06300
C 	C 	0.92097 0.84562 0.85199 0.07000
C 	C 	0.98679 0.74107 0.82440 0.22200
O 	O 	0.06536 0.74378 0.82131 -0.21000
O 	O 	0.95889 0.63899 0.81073 -0.20500
C 	C 	0.91817 0.58655 0.70955 0.03500
C 	C 	-0.02879 0.46046 0.62717 -0.02200
C 	C 	-0.02432 0.39678 0.71189 0.03800
O 	O 	0.02169 0.27946 0.64500 -0.21200
C 	C 	0.06221 0.22900 0.71237 0.20800
O 	O 	0.13763 0.16961 0.66513 -0.20400
C 	C 	-0.07701 0.40030 0.52235 0.05100
O 	O 	-0.01631 0.30104 0.42296 -0.21500
C 	C 	0.99941 0.29620 0.30353 0.24700
O 	O 	-0.05604 0.34718 0.27142 -0.25900
C 	C 	0.06543 0.46640 0.56766 0.05400
O 	O 	0.05414 0.51934 0.48625 -0.23000
C 	C 	0.13107 0.53281 0.42057 0.26500
O 	O 	0.20618 0.49693 0.42858 -0.25400
C 	C 	0.12038 0.59385 0.33956 -0.09200
C 	C 	0.05705 0.71273 0.41179 -0.03900
C 	C 	0.05618 0.77831 0.33185 -0.07200
C 	C 	0.03189 0.71194 0.20729 -0.03900
C 	C 	0.08295 0.58374 0.14262 -0.08300
C 	C 	0.08281 0.52491 0.22981 -0.05300
H 	H 	0.84794 0.58633 0.74693 0.03100
H 	H 	0.91534 0.63607 0.65342 0.04000
H 	H 	-0.09338 0.39913 0.75640 0.03500
H 	H 	0.00993 0.44214 0.78536 0.05000
H 	H 	-0.13511 0.37241 0.55934 0.02200
H 	H 	-0.10505 0.46386 0.49011 0.04200
H 	H 	0.10889 0.37826 0.51609 0.05400
H 	H 	0.09904 0.51775 0.63875 0.05600
H 	H 	0.18801 0.60434 0.30391 0.06700
H 	H 	-0.01225 0.70336 0.44083 0.04900
H 	H 	0.07873 0.76343 0.49609 0.06200
H 	H 	0.12387 0.79731 0.31566 0.07600
H 	H 	0.00839 0.86236 0.38398 0.05200
H 	H 	-0.04043 0.71220 0.22037 0.04000
H 	H 	1.15421 0.57534 0.10039 0.05300
H 	H 	1.05160 0.53559 0.06708 0.04600
H 	H 	0.01312 0.51882 0.26195 0.05800
H 	H 	1.12443 0.43587 0.17876 0.04500
C 	C 	0.56262 0.15390 0.74806 0.13600
O 	O 	0.52581 0.20861 0.70044 -0.19800
O 	O 	0.53348 0.05780 0.75474 -0.28200
C 	C 	0.46111 0.02139 0.69853 0.01000
C 	C 	0.49511 0.91612 0.57066 -0.00700
C 	C 	0.42011 0.84602 0.54173 0.03600
O 	O 	0.33686 0.91895 0.55282 -0.16800
C 	C 	0.26044 0.87357 0.56451 0.23500
O 	O 	0.23961 0.80770 0.47423 -0.20800
C 	C 	0.51888 0.95834 0.47148 0.16000
O 	O 	0.44138 0.01948 0.45737 -0.25500
C 	C 	0.44421 -0.00098 0.33627 0.21300
O 	O 	0.51003 0.00674 0.27217 -0.30900
C 	C 	0.58183 0.83655 0.56735 0.04700
O 	O 	0.65680 0.89255 0.56816 -0.24700
C 	C 	0.73368 0.83524 0.47073 0.27300
O 	O 	0.75350 0.73013 0.41743 -0.25200
C 	C 	0.79100 0.90455 0.42797 -0.15900
C 	C 	0.82436 0.99154 0.53296 -0.00300
C 	C 	0.86047 1.08263 0.49786 -0.11300
C 	C 	0.79237 1.14795 0.45202 0.08800
C 	C 	0.71060 0.09265 0.43256 -0.23400
C 	C 	0.74271 0.96153 0.35777 0.17700
H 	H 	0.41846 -0.00439 0.76004 0.05500
H 	H 	0.41577 0.09337 0.69406 0.06700
H 	H 	0.41136 0.80480 0.60576 0.04000
H 	H 	0.44097 0.77514 0.44721 0.03800
H 	H 	0.56401 0.01774 0.49800 -0.00200
H 	H 	0.55376 0.88148 0.38440 0.02400
H 	H 	0.59451 0.75237 0.48546 0.02900
H 	H 	0.57079 0.81872 0.64948 0.01900
H 	H 	0.85165 0.84323 0.36162 0.07800
H 	H 	0.76895 1.03639 0.61530 0.04400
H 	H 	0.87781 0.94472 0.55786 0.03100
H 	H 	0.92481 1.03960 0.42890 0.08500
H 	H 	0.87556 1.14782 0.58064 0.09000
H 	H 	0.76750 1.23765 0.52472 0.05100
H 	H 	0.66761 0.12944 0.38623 0.09000
H 	H 	0.66908 0.11341 0.52386 0.08400
H 	H 	0.68664 -0.07851 0.32817 -0.04400
H 	H 	0.78968 -0.05591 0.27065 -0.04300
