data_crystal

_cell_length_a 21.99740
_cell_length_b 22.04590
_cell_length_c 9.45870
_cell_angle_alpha 69.51060
_cell_angle_beta  117.89680
_cell_angle_gamma 136.26670

_symmetry_space_group_name_	'P 1'
_symmetry_space_group_name_H-M	'P 1'

loop_
_symmetry_equiv_pos_as_xyz
  x,y,z

loop_
_atom_site_label
_atom_site_type_symbol
_atom_site_fract_x
_atom_site_fract_y
_atom_site_fract_z
_atom_site_charge
Mn	Mn	0.89557 0.21138 0.83027 1.21000
Mn	Mn	1.09231 0.24323 1.01734 1.26000
Mn	Mn	0.21797 -0.09778 0.71736 1.21300
Mn	Mn	0.02449 0.87738 0.55104 1.25800
Mn	Mn	0.05803 0.06033 0.28609 1.26700
C 	C 	1.03614 0.38637 -0.00507 0.12000
N 	N 	1.01270 0.31357 -0.02435 -0.23600
N 	N 	1.08980 0.32832 0.04426 -0.17800
N 	N 	1.16098 0.40949 0.10096 -0.04000
N 	N 	1.12850 0.44639 0.07588 -0.06800
N 	N 	0.21501 0.32139 0.33226 -0.10800
N 	N 	0.17051 0.25485 0.24909 -0.20900
N 	N 	0.15961 0.18953 0.34686 -0.19600
N 	N 	0.19943 0.21370 0.49641 -0.10300
C 	C 	0.23457 0.29615 0.48627 0.11100
C 	C 	0.05547 0.07079 0.84759 0.06600
N 	N 	1.08618 0.15531 0.97627 -0.19500
N 	N 	1.07354 0.14487 0.83312 -0.06900
N 	N 	0.96148 0.07479 0.17798 -0.21100
N 	N 	0.97894 0.14350 0.08323 -0.18100
N 	N 	0.90420 0.13258 0.01054 -0.19400
N 	N 	0.83348 1.05607 0.04901 -0.11900
N 	N 	0.07515 0.09019 1.07285 -0.22600
N 	N 	0.05629 0.03567 0.99645 -0.10100
C 	C 	0.86926 1.02104 0.15584 0.14300
N 	N 	0.09745 0.80264 0.56790 -0.25800
N 	N 	0.02342 0.79317 0.50548 -0.20500
N 	N 	-0.04714 0.72301 0.41525 -0.06900
N 	N 	-0.01954 0.68584 0.41557 -0.09900
N 	N 	0.86788 0.79059 0.25383 -0.10700
N 	N 	0.93958 0.86602 0.32836 -0.19900
N 	N 	0.95515 0.93146 0.22802 -0.18200
N 	N 	0.89451 0.90088 0.08332 -0.08300
N 	N 	0.04356 0.07333 0.57289 -0.09700
N 	N 	0.03766 0.02671 0.50090 -0.20000
N 	N 	0.02879 -0.03762 0.59779 -0.20400
N 	N 	0.03007 -0.03466 0.73626 -0.09800
N 	N 	0.15637 0.04749 0.39013 -0.21600
N 	N 	0.13861 -0.02096 0.48543 -0.19700
N 	N 	0.21132 -0.01343 0.54905 -0.21000
N 	N 	0.27932 0.05870 0.49635 -0.12200
Cl	Cl	0.99269 0.22594 0.76375 -0.77500
Cl	Cl	0.12624 -0.10934 0.79747 -0.78700
C 	C 	0.07073 0.73566 0.51088 0.09600
C 	C 	0.84047 0.81311 0.10193 0.18000
C 	C 	0.03943 0.03476 0.71861 0.08800
C 	C 	0.24651 0.09733 0.39676 0.08900
C 	C 	0.80582 0.93164 0.21779 -0.08300
C 	C 	0.79761 -0.07384 0.36073 0.00400
C 	C 	0.70986 0.87766 0.36752 -0.05600
C 	C 	0.62952 0.83578 0.23002 -0.01800
C 	C 	0.54037 0.80992 0.21255 0.00800
C 	C 	0.55169 0.84927 0.34001 -0.09400
C 	C 	0.46085 0.82535 0.30535 -0.00600
N 	N 	0.38343 0.73009 0.28836 -0.12900
C 	C 	0.33675 0.67745 0.40459 0.15500
N 	N 	0.31813 0.60170 0.45889 -0.15500
C 	C 	0.27309 0.55011 0.56653 0.15700
N 	N 	0.25748 0.47219 0.62359 -0.12800
C 	C 	0.33998 0.48234 0.71515 -0.00600
C 	C 	0.34126 0.43505 0.63107 -0.08200
C 	C 	0.25415 0.33598 0.61955 -0.03900
C 	C 	0.16774 0.31583 0.60492 -0.06300
C 	C 	0.17201 0.39223 0.53256 -0.01900
N 	N 	0.24493 0.57348 0.62030 -0.15900
C 	C 	0.26389 0.65022 0.56745 0.14800
N 	N 	0.23375 0.67544 0.62279 -0.12400
C 	C 	0.28910 0.76907 0.63790 -0.02300
C 	C 	0.23186 0.78349 0.64633 -0.05800
C 	C 	0.13026 0.71761 0.53769 -0.07200
C 	C 	0.08447 0.62245 0.59987 -0.06400
C 	C 	0.15319 0.60882 0.67949 -0.01800
N 	N 	0.31065 0.70242 0.46023 -0.16100
C 	C 	0.36867 0.68792 0.17097 -0.00800
C 	C 	0.45823 0.70961 0.20744 -0.09000
C 	C 	0.63646 0.82860 0.09679 0.06000
C 	C 	0.72423 0.87143 0.09772 0.10000
O 	O 	0.73119 0.86557 -0.03530 -0.18000
C 	C 	0.66940 0.86511 -0.18434 0.00400
C 	C 	0.56757 0.79307 -0.18645 0.06300
O 	O 	0.55679 0.78286 -0.03914 -0.19300
H 	H 	0.85847 -0.02915 0.45607 0.04100
H 	H 	0.70762 0.88155 0.47555 0.03100
H 	H 	0.52190 0.83815 0.09541 0.03500
H 	H 	0.60947 0.92192 0.34166 0.03000
H 	H 	0.56789 0.82212 0.46035 0.03800
H 	H 	0.46879 0.84900 0.40453 0.01700
H 	H 	0.44644 0.85827 0.19250 0.01400
H 	H 	0.40518 0.55273 0.72708 0.02200
H 	H 	0.33759 0.45440 0.83705 0.01700
H 	H 	0.40336 0.44287 0.69820 0.04700
H 	H 	0.34705 0.46612 0.51197 0.05600
H 	H 	0.26910 0.30407 0.73146 0.03900
H 	H 	0.10195 0.25509 0.53556 0.05200
H 	H 	0.16439 0.30332 0.72588 0.02900
H 	H 	0.11030 0.37458 0.53283 0.03600
H 	H 	0.17014 0.40333 0.40793 0.04700
H 	H 	0.35142 0.79493 0.74685 0.01300
H 	H 	0.31294 0.80663 0.53279 0.02600
H 	H 	0.23468 0.77498 0.77172 -0.03200
H 	H 	0.26296 0.85198 0.60618 -0.06100
H 	H 	0.13207 0.72391 0.41736 0.04300
H 	H 	0.05229 0.60354 0.68686 0.02700
H 	H 	0.02749 0.57821 0.49632 0.03000
H 	H 	0.11552 0.54153 0.65462 0.02300
H 	H 	0.17879 0.61381 0.81135 0.02600
H 	H 	0.31034 0.61549 0.17220 0.04700
H 	H 	0.34949 0.71227 0.04901 0.03900
H 	H 	0.47293 0.67915 0.32441 0.05400
H 	H 	0.44638 0.68045 0.11270 0.06700
H 	H 	0.67569 0.85377 -0.28034 0.04700
H 	H 	0.69121 0.93084 -0.20737 0.03100
H 	H 	0.52693 0.80897 0.71649 -0.01200
H 	H 	0.53691 0.72935 -0.21408 0.04100
C 	C 	0.96815 0.39344 -0.04649 -0.01400
C 	C 	0.87328 0.32086 0.89239 -0.14100
C 	C 	0.80778 0.31880 -0.11442 0.08000
C 	C 	0.83431 0.38807 -0.05665 -0.05300
C 	C 	0.76138 0.36250 -0.00782 0.00700
C 	C 	0.68021 0.34815 -0.15222 -0.04100
C 	C 	0.59803 0.29563 -0.09549 -0.01800
N 	N 	0.62779 0.33847 0.04096 -0.12200
C 	C 	0.58774 0.37187 0.01988 0.16800
N 	N 	0.62739 0.45418 -0.03949 -0.12500
C 	C 	0.58687 0.48518 0.92961 0.11500
N 	N 	0.62932 0.57275 0.86417 -0.13400
C 	C 	0.71850 0.63173 -0.16505 0.06000
C 	C 	0.79568 0.70520 -0.04275 -0.04000
C 	C 	0.76702 0.74952 0.96767 -0.11800
C 	C 	0.67099 0.68086 0.99191 -0.04000
C 	C 	0.59826 0.61422 0.85951 -0.07400
N 	N 	0.50677 0.43293 0.96315 -0.15300
C 	C 	0.46601 0.34976 1.02044 0.11700
N 	N 	0.38391 0.29613 1.06060 -0.12700
C 	C 	0.30345 0.20594 1.00323 -0.03800
C 	C 	0.28579 0.14070 1.14483 -0.16100
C 	C 	0.30433 0.17391 0.29239 0.05200
C 	C 	0.31033 0.25139 1.25500 -0.18400
C 	C 	0.38457 0.32817 1.17417 0.01600
N 	N 	0.50620 0.31903 0.04711 -0.13100
C 	C 	0.71493 0.37110 0.17523 -0.02000
C 	C 	0.79483 0.42036 0.11375 -0.03800
C 	C 	0.93071 0.46606 -0.00971 0.08500
C 	C 	0.99681 0.46885 -0.01060 0.07900
O 	O 	1.09217 0.54562 0.02709 -0.17400
C 	C 	1.11786 0.62307 0.05170 0.06400
C 	C 	1.05580 0.60176 0.12705 -0.00000
O 	O 	0.95992 0.54136 0.03058 -0.17600
H 	H 	0.84858 0.26127 0.86312 -0.10100
H 	H 	0.73545 0.25785 0.85133 -0.04400
H 	H 	0.73280 0.29757 0.05594 0.02200
H 	H 	0.65842 0.31269 -0.24896 0.04600
H 	H 	0.70191 0.41258 0.79875 0.01600
H 	H 	0.54066 0.28930 -0.19665 0.04600
H 	H 	0.57061 0.22820 -0.05928 0.02400
H 	H 	0.73815 0.59606 -0.15828 0.04200
H 	H 	0.71102 0.66046 0.71157 -0.00500
H 	H 	0.86113 0.75574 -0.07406 0.06000
H 	H 	0.81095 0.67598 0.07536 0.06600
H 	H 	0.76293 0.78634 0.85312 0.05200
H 	H 	0.67674 0.64696 1.10958 0.02700
H 	H 	0.64848 0.71150 0.99471 0.02900
H 	H 	0.59063 0.64681 0.74065 0.03900
H 	H 	0.53078 0.56603 -0.11855 0.08900
H 	H 	0.24179 0.19844 0.93797 0.04300
H 	H 	0.31370 0.19184 -0.08128 0.07700
H 	H 	0.21447 0.07617 1.10721 0.06000
H 	H 	0.33269 0.12928 0.17976 0.08300
H 	H 	0.37700 0.20432 0.36751 0.02500
H 	H 	0.24320 0.23044 1.17005 0.03400
H 	H 	0.32842 0.27446 0.36726 0.08800
H 	H 	0.45435 0.36654 1.26921 0.00800
H 	H 	0.37030 0.37175 1.10936 0.00700
H 	H 	0.73515 0.41547 0.25102 0.04000
H 	H 	0.70288 0.31426 0.25165 0.02100
H 	H 	0.81444 0.48335 1.05491 0.01800
H 	H 	0.85634 0.43467 0.21694 0.04200
H 	H 	0.11331 0.65819 -0.06434 -0.00300
H 	H 	1.19157 0.66755 0.13113 0.03900
H 	H 	1.06596 0.57299 0.24906 0.04900
H 	H 	1.07588 0.66330 0.13945 0.05000
