data_crystal

_cell_length_a 19.84660
_cell_length_b 16.44000
_cell_length_c 9.59190
_cell_angle_alpha 59.39100
_cell_angle_beta  117.23090
_cell_angle_gamma 135.17870

_symmetry_space_group_name_	'P 1'
_symmetry_space_group_name_H-M	'P 1'

loop_
_symmetry_equiv_pos_as_xyz
  x,y,z

loop_
_atom_site_label
_atom_site_type_symbol
_atom_site_fract_x
_atom_site_fract_y
_atom_site_fract_z
_atom_site_charge
Mn	Mn	0.79204 0.18667 0.74311 1.22700
Mn	Mn	1.01619 0.25232 0.86014 1.26600
Mn	Mn	0.22050 -0.18019 0.70811 1.20200
Mn	Mn	0.00367 0.77041 0.56812 1.26900
Mn	Mn	0.01549 0.01332 0.21107 1.24800
C 	C 	0.92050 0.39071 -0.09903 0.18200
N 	N 	0.90925 0.32002 -0.15314 -0.20500
N 	N 	0.99620 0.35108 -0.11932 -0.14500
N 	N 	1.05961 0.43947 -0.05094 -0.01200
N 	N 	1.01454 0.46737 -0.03860 -0.05300
N 	N 	0.18029 0.37918 0.09909 -0.10200
N 	N 	0.11709 0.27665 0.06291 -0.20800
N 	N 	0.11549 0.19048 0.19255 -0.19900
N 	N 	0.17593 0.23388 0.31855 -0.09800
C 	C 	0.21689 0.35209 0.25798 0.12700
C 	C 	1.01729 0.03829 0.76271 0.14900
N 	N 	1.02579 0.14104 0.84853 -0.19500
N 	N 	1.02214 0.13526 0.71231 -0.07400
N 	N 	0.90732 1.02505 0.12048 -0.18500
N 	N 	0.90604 0.10573 -0.01589 -0.17500
N 	N 	0.81993 1.07825 -0.06216 -0.14200
N 	N 	0.76252 0.98082 0.04607 -0.07900
N 	N 	1.02278 0.05186 0.97578 -0.21300
N 	N 	1.01674 0.98488 0.92605 -0.06400
C 	C 	0.81759 0.94745 0.15989 0.19300
N 	N 	0.09924 0.68000 0.61921 -0.24500
N 	N 	0.01582 0.65984 0.56528 -0.20000
N 	N 	-0.04721 0.57221 0.49553 -0.04200
N 	N 	-0.00505 0.53303 0.50432 -0.08600
N 	N 	0.81979 0.64187 0.34443 -0.06200
N 	N 	0.90495 0.74668 0.36120 -0.17500
N 	N 	0.91303 0.83500 0.22742 -0.16300
N 	N 	0.83407 0.79067 0.11699 -0.05500
N 	N 	0.01627 0.04887 0.49181 -0.07600
N 	N 	0.00914 -0.02035 0.44457 -0.22100
N 	N 	0.00018 0.88776 0.57168 -0.19100
N 	N 	0.00160 0.89362 0.70550 -0.06400
N 	N 	0.12208 -0.00357 0.30706 -0.24300
N 	N 	0.11547 -0.09103 0.44175 -0.21400
N 	N 	0.19842 -0.07229 0.49722 -0.21600
N 	N 	0.26231 0.02664 0.40006 -0.11900
Cl	Cl	0.90062 0.22944 0.63972 -0.68500
Cl	Cl	0.11826 0.79764 0.79650 -0.76600
C 	C 	0.08644 0.60175 0.58088 0.08600
C 	C 	0.77702 0.67065 0.19108 0.13500
C 	C 	0.01121 -0.00598 0.65393 -0.00600
C 	C 	0.21499 0.07009 0.28217 0.14000
C 	C 	0.79083 0.86171 0.32682 -0.10700
C 	C 	0.79585 0.91440 0.42679 -0.03100
C 	C 	0.75266 0.83701 0.56927 0.19000
F 	F 	0.72508 0.72378 0.63501 -0.42400
C 	C 	0.72789 0.87177 0.63272 0.31300
F 	F 	0.67912 -0.20756 0.76239 -0.48200
C 	C 	0.73633 -0.02231 0.54187 -0.19300
C 	C 	0.66969 -0.01177 0.55441 -0.02100
C 	C 	0.56511 0.88357 0.51568 0.06600
C 	C 	0.49083 0.84758 0.56824 -0.06100
C 	C 	0.40610 0.73968 0.54051 0.02800
C 	C 	0.31460 0.67639 0.57125 0.01000
S 	S 	0.28439 0.72903 0.62738 -0.15300
C 	C 	0.16529 0.60683 0.59231 -0.03500
C 	C 	0.15062 0.52671 0.54827 -0.07800
C 	C 	0.23676 0.56760 0.53530 0.01400
C 	C 	0.24994 0.51846 0.47526 -0.03600
S 	S 	0.16214 0.38645 0.42600 0.02000
C 	C 	0.24796 0.41886 0.35939 -0.02400
C 	C 	0.33901 0.52705 0.37158 -0.05100
C 	C 	0.33972 0.58352 0.43984 0.03300
C 	C 	0.41741 0.69607 0.46840 -0.02700
S 	S 	0.52916 0.78974 0.42046 0.06300
C 	C 	0.79538 1.06328 0.41994 0.34300
F 	F 	0.81576 0.17275 0.34165 -0.38300
C 	C 	0.83126 1.03498 0.37230 0.19900
F 	F 	0.89669 1.12483 0.26803 -0.37300
H 	H 	0.71468 0.78084 0.30676 0.09400
H 	H 	0.83284 0.82833 0.39581 0.08500
H 	H 	0.68182 0.07448 0.46802 0.06200
H 	H 	0.68446 -0.01260 0.68143 -0.02900
H 	H 	0.49951 0.89524 0.62932 0.04000
H 	H 	0.08041 0.44855 0.51430 0.04600
H 	H 	0.39983 0.56386 0.32747 0.05800
C 	C 	0.84405 0.38967 -0.09911 -0.03100
C 	C 	0.73975 0.29616 -0.16210 -0.05900
C 	C 	0.70841 0.31464 0.66779 0.10500
F 	F 	0.77286 0.38848 0.56428 -0.43400
C 	C 	0.61236 0.26988 0.60177 0.16900
F 	F 	0.58665 0.30013 0.43637 -0.41100
C 	C 	0.54637 0.20473 -0.29424 -0.04800
C 	C 	0.45654 0.19584 -0.35973 -0.00400
C 	C 	0.46264 0.26425 -0.28713 0.03500
C 	C 	0.38624 0.21744 -0.22674 -0.04600
C 	C 	0.41538 0.28831 -0.14375 0.04400
C 	C 	0.36152 0.26083 -0.04815 0.00100
S 	S 	0.24646 0.13179 -0.01648 0.05500
C 	C 	0.25876 0.16930 0.13629 -0.08700
C 	C 	0.34737 0.27983 0.15541 0.08600
C 	C 	0.40675 0.33115 0.05168 -0.02600
C 	C 	0.50676 0.42962 0.05816 0.08800
S 	S 	0.57743 0.51237 1.19430 -0.11300
C 	C 	0.67743 0.58373 0.11961 0.09700
C 	C 	0.65676 0.54685 -0.00558 -0.01700
C 	C 	0.55891 0.45780 -0.03980 0.04700
C 	C 	0.51284 0.38780 -0.14306 -0.00900
S 	S 	0.56925 0.40021 -0.25220 0.12700
C 	C 	0.57259 0.16492 -0.12430 0.21300
F 	F 	0.50816 0.09512 -0.02151 -0.42200
C 	C 	0.66904 0.21222 -0.05816 0.21000
F 	F 	0.69459 0.19001 0.10644 -0.37700
H 	H 	0.86335 0.48043 0.82614 0.01800
H 	H 	0.85046 0.38025 0.02876 0.12600
H 	H 	0.39187 0.09934 -0.33048 0.03600
H 	H 	0.44811 1.23499 0.50512 0.07900
H 	H 	0.31507 0.13132 -0.23304 0.07200
H 	H 	0.37185 0.31223 1.25578 -0.04800
H 	H 	0.71123 0.57923 -0.06202 0.12200
