data_crystal

_cell_length_a 19.40610
_cell_length_b 19.06650
_cell_length_c 9.54990
_cell_angle_alpha 59.67880
_cell_angle_beta  116.07410
_cell_angle_gamma 132.54560

_symmetry_space_group_name_	'P 1'
_symmetry_space_group_name_H-M	'P 1'

loop_
_symmetry_equiv_pos_as_xyz
  x,y,z

loop_
_atom_site_label
_atom_site_type_symbol
_atom_site_fract_x
_atom_site_fract_y
_atom_site_fract_z
_atom_site_charge
Mn	Mn	0.83847 0.12578 0.68638 1.20300
Mn	Mn	1.06792 0.21429 0.87494 1.26100
Mn	Mn	0.26628 -0.17267 0.72520 1.16400
Mn	Mn	0.06015 0.80857 0.59961 1.29000
Mn	Mn	0.07362 0.02076 0.24639 1.24900
C 	C 	0.89691 0.28961 -0.20900 0.15000
N 	N 	0.91970 0.24150 -0.22413 -0.24600
N 	N 	1.00775 0.27611 -0.14864 -0.18300
N 	N 	1.03930 0.34347 -0.08715 -0.04800
N 	N 	0.97144 0.35392 -0.12367 -0.08600
N 	N 	0.18656 0.31391 0.13409 -0.10400
N 	N 	0.14783 0.23523 0.09519 -0.20400
N 	N 	0.16039 0.16885 0.22446 -0.19800
N 	N 	0.20678 0.20244 0.35178 -0.10100
C 	C 	0.22304 0.29262 0.29414 0.11500
C 	C 	0.09264 0.04383 0.81092 0.02900
N 	N 	1.11016 0.13885 0.89476 -0.20800
N 	N 	0.10688 0.13163 0.76138 -0.07700
N 	N 	0.96436 1.03442 0.13754 -0.15700
N 	N 	0.95874 0.08264 -0.01994 -0.25700
N 	N 	0.87053 1.04861 -0.08784 -0.13300
N 	N 	0.81567 0.98050 0.02660 -0.08700
N 	N 	0.09616 0.05756 1.02036 -0.24800
N 	N 	0.08579 0.99629 0.97238 0.00300
C 	C 	0.87481 0.97364 0.17012 0.07300
N 	N 	0.14438 0.71776 0.63180 -0.23500
N 	N 	0.06527 0.70922 0.58976 -0.19000
N 	N 	-0.00592 0.62901 0.54231 -0.05200
N 	N 	0.02628 0.58391 0.55046 -0.08700
N 	N 	0.89509 0.71294 0.36419 -0.11000
N 	N 	-0.03249 0.79871 0.39325 -0.20300
N 	N 	0.97943 0.87439 0.25839 -0.16700
N 	N 	0.91418 0.84032 0.13552 -0.08300
N 	N 	0.06572 0.04202 0.53192 -0.08700
N 	N 	0.05594 -0.01681 0.47881 -0.24400
N 	N 	0.05678 0.90913 0.60689 -0.15500
N 	N 	0.06665 0.91682 0.74532 -0.03400
N 	N 	0.18187 0.00388 0.35457 -0.24900
N 	N 	0.17067 -0.07772 0.47585 -0.23300
N 	N 	0.24892 -0.07172 0.52365 -0.23500
N 	N 	0.31394 0.01243 0.43316 -0.14400
Cl	Cl	0.97646 0.18852 0.63408 -0.78700
Cl	Cl	0.17251 0.81942 0.82642 -0.71400
C 	C 	0.12005 0.63989 0.60535 0.11700
C 	C 	0.86277 0.73954 0.20370 0.16800
C 	C 	0.07241 -0.00018 0.69701 0.02300
C 	C 	0.27187 0.05914 0.32720 0.16600
C 	C 	0.25515 0.34780 0.40129 -0.01900
C 	C 	0.26221 0.43679 0.33707 -0.02700
C 	C 	0.29113 0.48650 0.44234 -0.03500
C 	C 	0.31424 0.44799 0.61255 -0.03100
P 	P 	0.37555 0.51917 0.75852 0.06900
C 	C 	0.30252 0.56462 0.68916 -0.01900
C 	C 	0.20437 0.50101 0.64297 -0.05000
C 	C 	0.14618 0.52781 0.61011 -0.00900
C 	C 	0.18396 0.61621 0.63175 -0.06100
C 	C 	0.28171 0.67980 0.67909 -0.00500
C 	C 	0.34041 0.65416 0.70784 -0.05800
C 	C 	0.48378 0.63411 0.66206 -0.01400
C 	C 	0.50672 0.64244 0.53091 -0.04800
C 	C 	0.58858 0.72879 0.46423 -0.01500
C 	C 	0.65358 0.80679 0.53359 -0.05500
C 	C 	0.74024 0.89840 0.46072 0.19600
C 	C 	0.78739 0.89207 0.39433 -0.15500
C 	C 	0.85841 0.97874 0.29985 0.17600
C 	C 	0.88577 0.07281 0.27861 -0.24200
C 	C 	0.83775 0.08000 0.33945 0.17200
C 	C 	0.85122 0.17763 0.27942 -0.22300
C 	C 	0.76668 -0.00709 0.43395 -0.28000
C 	C 	0.63449 0.79652 0.67125 -0.00900
C 	C 	0.55120 0.71023 0.73616 -0.05000
C 	C 	0.29694 0.35449 0.67573 -0.04800
C 	C 	0.27172 0.30674 0.57178 -0.02000
H 	H 	0.24728 0.46883 0.20591 0.04200
H 	H 	0.30117 0.55763 0.39065 0.03800
H 	H 	0.17166 0.42898 0.63601 0.01000
H 	H 	0.07093 0.47720 0.57347 0.03900
H 	H 	0.31274 0.74862 0.69598 -0.07800
H 	H 	0.41462 0.70384 0.74886 0.02900
H 	H 	0.46511 0.58224 0.48129 0.04000
H 	H 	0.60138 0.73356 0.35916 0.03100
H 	H 	0.76377 0.81973 0.40413 0.07000
H 	H 	0.93593 0.13976 0.19602 0.08800
H 	H 	0.82467 0.17857 0.36026 0.01200
H 	H 	-0.07251 0.24131 0.27595 0.09500
H 	H 	0.81155 0.18822 0.15309 0.06900
H 	H 	0.72639 -0.00184 0.47395 0.00500
H 	H 	0.68487 0.85414 0.73068 0.01800
H 	H 	0.54062 0.70204 0.84718 0.02600
H 	H 	0.30521 0.31958 0.80646 0.03100
H 	H 	0.26385 0.23668 0.62549 0.04500
C 	C 	0.78508 0.66646 1.11469 -0.09900
C 	C 	0.73261 0.56342 0.20163 0.02200
C 	C 	0.65716 0.49343 0.11910 -0.01400
C 	C 	0.63350 0.52588 0.94804 -0.05100
P 	P 	0.52777 0.44229 0.82797 0.08100
C 	C 	0.45431 0.32687 0.98625 0.01600
C 	C 	0.43231 0.33276 1.10028 -0.17300
C 	C 	0.36783 0.24546 0.20679 0.10700
C 	C 	0.31935 0.15144 1.19294 -0.16700
C 	C 	0.33787 0.14595 1.07377 0.02600
C 	C 	0.40409 0.23274 0.97070 -0.09200
C 	C 	0.58507 0.40399 0.79948 -0.02300
C 	C 	0.62610 0.35662 0.93122 -0.06200
C 	C 	0.66509 0.32592 0.90085 -0.09200
C 	C 	0.66288 0.34186 0.73892 0.02300
C 	C 	0.68927 0.29585 0.70490 -0.02500
C 	C 	0.77964 0.31571 0.76465 -0.01400
C 	C 	0.80234 0.27062 0.72903 -0.11500
C 	C 	0.73306 0.20567 0.63338 -0.00000
C 	C 	0.64236 0.18361 0.57739 -0.08300
C 	C 	0.56745 1.11088 0.48129 -0.05900
C 	C 	0.62112 0.22921 0.61274 -0.04200
C 	C 	0.62336 0.39089 0.60820 -0.05400
C 	C 	0.58545 0.42227 0.63844 -0.03000
C 	C 	0.69038 0.62768 0.86109 -0.04000
C 	C 	0.76464 0.69797 0.94319 -0.00800
H 	H 	0.74954 0.53706 0.33381 0.03100
H 	H 	0.61787 0.41490 0.18976 0.03500
H 	H 	0.46586 0.40490 0.10813 0.08700
H 	H 	0.35879 0.25128 0.30350 0.00500
H 	H 	0.30297 0.07379 1.06394 -0.00200
H 	H 	0.41487 0.22623 0.87704 0.04000
H 	H 	0.62436 0.33950 0.05660 0.05600
H 	H 	0.69267 0.28550 0.00321 0.05800
H 	H 	0.83197 0.36658 0.83693 0.02500
H 	H 	0.74848 0.17181 0.60070 -0.13900
H 	H 	0.54239 1.14851 0.35973 0.09400
H 	H 	0.59445 1.08138 0.46055 0.04900
H 	H 	0.50651 1.04662 0.54937 0.04200
H 	H 	0.55067 0.21176 0.56977 0.01800
H 	H 	0.61930 0.40229 0.48258 0.04100
H 	H 	0.55405 0.45872 0.53584 0.03200
H 	H 	0.67636 0.65272 0.72881 0.03900
H 	H 	0.80593 0.77659 0.87272 0.04200
