data_crystal

_cell_length_a 21.63390
_cell_length_b 19.43630
_cell_length_c 9.64070
_cell_angle_alpha 62.24360
_cell_angle_beta  112.96270
_cell_angle_gamma 136.60660

_symmetry_space_group_name_	'P 1'
_symmetry_space_group_name_H-M	'P 1'

loop_
_symmetry_equiv_pos_as_xyz
  x,y,z

loop_
_atom_site_label
_atom_site_type_symbol
_atom_site_fract_x
_atom_site_fract_y
_atom_site_fract_z
_atom_site_charge
Mn	Mn	0.80520 0.12047 0.79244 1.18500
Mn	Mn	1.02172 0.21635 0.87867 1.25900
Mn	Mn	0.24270 -0.09090 0.61197 1.21100
Mn	Mn	0.04295 0.84867 0.56734 1.25700
Mn	Mn	0.03429 0.03776 0.23045 1.26300
C 	C 	0.91946 0.32801 -0.12975 0.11800
N 	N 	0.91216 0.25750 -0.14703 -0.23200
N 	N 	0.99559 0.29610 -0.12062 -0.17000
N 	N 	1.05295 0.38734 -0.09165 -0.02400
N 	N 	1.00645 0.40850 -0.09423 -0.05900
N 	N 	0.15956 0.34551 0.08795 -0.10900
N 	N 	0.11744 0.25887 0.06156 -0.20700
N 	N 	0.12309 0.19564 0.19189 -0.19800
N 	N 	0.16628 0.23960 0.30781 -0.10300
C 	C 	0.18940 0.33341 0.24019 0.11600
C 	C 	0.03666 0.04910 0.79099 0.04000
N 	N 	1.03924 0.13179 0.87661 -0.21200
N 	N 	1.04052 0.12835 0.74505 -0.05300
N 	N 	0.93413 0.04179 0.17009 -0.20200
N 	N 	0.92428 0.08960 0.02419 -0.17600
N 	N 	0.83941 0.04457 -0.01584 -0.18100
N 	N 	0.79045 0.96405 0.10329 -0.11100
N 	N 	1.03365 0.05812 0.99874 -0.18700
N 	N 	0.03271 0.00396 0.94936 -0.12600
C 	C 	0.85204 0.97326 0.22618 0.10600
N 	N 	0.12276 0.77647 0.56193 -0.26300
N 	N 	0.04606 0.75168 0.54964 -0.20800
N 	N 	-0.02308 0.65652 0.53292 -0.07500
N 	N 	0.00836 0.61852 0.53038 -0.10200
N 	N 	0.86533 0.71550 0.39786 -0.09800
N 	N 	0.94061 0.81234 0.39869 -0.19100
N 	N 	0.94076 0.87981 0.26987 -0.17700
N 	N 	0.86575 0.82900 0.17858 -0.07700
N 	N 	0.03711 0.06376 0.52160 -0.09800
N 	N 	0.03840 0.01431 0.46536 -0.20000
N 	N 	0.04334 -0.05315 0.58461 -0.20900
N 	N 	0.04420 -0.05155 0.72064 -0.10900
N 	N 	0.13482 0.03623 0.28675 -0.23500
N 	N 	0.13505 -0.03335 0.41008 -0.19700
N 	N 	0.21024 -0.01242 0.42610 -0.21000
N 	N 	0.26059 0.06862 0.31043 -0.12000
Cl	Cl	0.90951 0.16558 0.67951 -0.77100
Cl	Cl	0.16383 -0.10753 0.74769 -0.79700
C 	C 	0.09937 0.69373 0.54887 0.09600
C 	C 	0.81967 0.72716 0.26105 0.11100
C 	C 	0.04076 0.02174 0.67970 0.08800
C 	C 	0.21255 0.09759 0.22240 0.12600
C 	C 	0.20960 0.39584 0.32291 -0.03400
C 	C 	0.29584 0.46210 0.39587 -0.01800
C 	C 	0.32513 0.54849 0.41975 -0.07100
C 	C 	0.26985 0.57244 0.36453 0.04000
C 	C 	0.30756 0.68056 0.34347 -0.09300
C 	C 	0.26399 0.68315 0.43149 0.04200
C 	C 	0.18923 0.59203 0.51997 -0.08300
C 	C 	0.13741 0.59624 0.56283 -0.00900
C 	C 	0.16170 0.69187 0.52626 -0.08300
C 	C 	0.24045 0.78411 0.45024 -0.02200
C 	C 	0.28988 0.77938 0.40105 -0.08100
C 	C 	0.41072 0.76294 0.35554 0.03500
C 	C 	0.45493 0.79562 0.23466 -0.06500
C 	C 	0.54839 0.86108 0.24744 -0.03300
C 	C 	0.60073 0.89826 0.37935 -0.00800
C 	C 	0.69803 0.95390 0.39737 -0.01200
C 	C 	0.75132 1.04178 0.27336 -0.04800
C 	C 	0.82955 1.07290 0.25085 -0.02600
C 	C 	0.84346 1.00160 0.33205 -0.02300
C 	C 	0.80212 0.92665 0.47252 0.02600
C 	C 	0.83172 0.87433 0.57766 -0.04700
C 	C 	0.80421 0.81618 0.72905 -0.01800
C 	C 	0.73508 0.79516 0.76801 -0.03500
C 	C 	0.69474 0.83382 0.65584 -0.04800
C 	C 	0.73117 0.90524 0.50996 0.00200
C 	C 	0.55793 0.87361 0.49426 -0.03700
C 	C 	0.46342 0.80392 0.48500 -0.07000
C 	C 	0.18043 0.49931 0.30536 -0.07300
C 	C 	0.14928 0.40946 0.29109 -0.01200
H 	H 	0.34367 0.45389 0.41961 0.02900
H 	H 	0.39391 0.60100 0.46882 0.04300
H 	H 	0.28768 0.70611 0.21814 0.04700
H 	H 	0.16648 0.51642 0.54715 0.02500
H 	H 	0.07582 0.52399 0.61789 0.00800
H 	H 	0.25964 0.85880 0.41742 -0.05000
H 	H 	0.34600 0.85100 0.33098 0.03500
H 	H 	0.41623 0.76566 0.13358 0.03900
H 	H 	0.57968 0.87937 0.15676 0.02500
H 	H 	0.72615 1.07850 0.18647 0.01800
H 	H 	0.86362 0.13475 0.14472 0.03100
H 	H 	0.88143 0.88491 0.54764 0.05300
H 	H 	0.83825 0.78973 0.81520 0.03300
H 	H 	0.71163 0.74840 0.88447 0.02200
H 	H 	0.63922 0.81194 0.68970 0.02100
H 	H 	0.59717 0.90472 0.59426 -0.01500
H 	H 	0.43187 0.78068 0.58041 0.02100
H 	H 	0.13558 0.51390 0.26364 0.04400
H 	H 	0.08041 0.35609 0.24034 0.03000
C 	C 	0.73617 0.63905 0.20161 0.04800
C 	C 	0.73886 0.62167 1.08001 -0.09100
C 	C 	0.66233 0.53406 1.02830 -0.14300
C 	C 	0.58470 0.45417 0.11218 0.12500
C 	C 	0.51121 0.34581 0.08601 -0.12500
C 	C 	0.42193 0.31834 0.00264 0.07300
C 	C 	0.39241 0.35309 0.03923 -0.06700
C 	C 	0.30373 0.28243 0.07824 -0.00800
C 	C 	0.24340 0.17966 0.07104 -0.04600
C 	C 	0.26346 0.16234 -0.02507 0.01200
C 	C 	0.35391 0.22607 -0.04554 -0.06700
C 	C 	0.55231 0.32212 0.03684 0.12500
C 	C 	0.61730 0.31997 0.14569 -0.07500
C 	C 	0.67255 0.32156 0.10252 -0.03000
C 	C 	0.65854 0.31279 -0.04624 0.06200
C 	C 	0.71911 0.31169 -0.08455 0.05400
C 	C 	0.75413 0.26973 0.04234 -0.04700
C 	C 	0.82003 0.27824 0.02472 -0.03300
C 	C 	0.84406 0.31367 -0.12321 0.00400
C 	C 	0.80539 0.34798 0.74356 -0.05600
C 	C 	0.82769 0.38176 0.59225 -0.04200
C 	C 	0.79800 0.42670 0.46185 -0.01900
C 	C 	0.74898 0.44213 0.48116 -0.03700
C 	C 	0.72597 0.40963 0.62958 -0.02800
C 	C 	0.74782 0.35491 0.76276 -0.06500
C 	C 	0.58645 0.30332 0.84981 -0.09800
C 	C 	0.53893 0.31634 0.88592 -0.14400
C 	C 	0.58374 0.46986 0.24019 -0.08300
C 	C 	0.65754 0.56347 0.28034 -0.02600
H 	H 	0.80201 0.67198 1.03319 0.03700
H 	H 	0.66736 0.52453 0.93227 0.04900
H 	H 	0.49025 0.28942 0.20535 0.04500
H 	H 	0.43992 0.42615 0.06805 0.05500
H 	H 	0.29041 0.30150 0.14589 0.03700
H 	H 	0.21553 0.08585 -0.04369 0.06200
H 	H 	0.36955 0.19330 -0.07558 0.06800
H 	H 	0.62992 0.32526 0.26206 0.03900
H 	H 	0.72742 0.33132 0.18723 0.03300
H 	H 	0.73285 0.23190 0.15973 0.03100
H 	H 	0.85283 0.25662 0.12862 0.04400
H 	H 	0.86941 0.37527 0.57406 0.01700
H 	H 	0.81623 0.45369 0.34605 0.04900
H 	H 	0.72895 0.47972 0.37988 0.05200
H 	H 	0.69426 0.43174 0.63723 0.02700
H 	H 	0.56746 0.28805 0.73912 0.02500
H 	H 	0.49306 0.32315 0.79482 0.03900
H 	H 	0.52676 0.40845 0.31155 0.04000
H 	H 	0.65568 0.57314 0.38011 0.03400
