data_crystal

_cell_length_a 22.68690
_cell_length_b 19.11210
_cell_length_c 9.74500
_cell_angle_alpha 65.33600
_cell_angle_beta  119.28210
_cell_angle_gamma 134.58450

_symmetry_space_group_name_	'P 1'
_symmetry_space_group_name_H-M	'P 1'

loop_
_symmetry_equiv_pos_as_xyz
  x,y,z

loop_
_atom_site_label
_atom_site_type_symbol
_atom_site_fract_x
_atom_site_fract_y
_atom_site_fract_z
_atom_site_charge
Mn	Mn	0.79060 0.06228 0.84518 1.21600
Mn	Mn	0.99177 0.12618 0.96282 1.27600
Mn	Mn	0.22350 -0.17803 0.72254 1.22000
Mn	Mn	0.03278 0.77908 0.61483 1.27500
Mn	Mn	0.02570 -0.02930 0.31055 1.26100
C 	C 	0.91637 0.28102 -0.10889 0.17500
N 	N 	0.90099 0.19666 -0.09158 -0.24800
N 	N 	0.97778 0.21896 -0.03344 -0.16100
N 	N 	0.03929 0.31414 -0.01566 -0.08100
N 	N 	1.00265 0.35494 -0.05982 -0.05200
N 	N 	0.15468 0.26827 0.18659 -0.10000
N 	N 	0.09865 0.17492 0.16173 -0.20300
N 	N 	0.11178 0.12049 0.29339 -0.19900
N 	N 	0.17385 0.17652 0.41035 -0.10100
C 	C 	0.20146 0.26908 0.33978 0.11600
C 	C 	0.00797 -0.04293 0.87118 0.06100
N 	N 	1.00109 0.03484 0.95517 -0.19300
N 	N 	0.99573 0.02357 0.82443 -0.05200
N 	N 	0.93534 -0.00829 0.23043 -0.23000
N 	N 	0.90457 0.01245 0.07870 -0.17400
N 	N 	0.83951 0.00830 0.05301 -0.20000
N 	N 	0.84087 1.00886 0.18867 -0.10400
N 	N 	0.01419 -0.02236 1.07844 -0.21500
N 	N 	0.01886 -0.07371 1.02968 -0.09800
C 	C 	0.90804 1.01051 0.29773 0.15000
N 	N 	0.10782 0.70198 0.61713 -0.24800
N 	N 	0.03433 0.68541 0.57303 -0.19500
N 	N 	-0.02949 0.60911 0.49039 -0.06000
N 	N 	0.00228 0.57404 0.48063 -0.09300
N 	N 	0.85459 0.66712 0.40074 -0.10800
N 	N 	0.93353 0.75348 0.41879 -0.18500
N 	N 	0.93128 0.82284 0.31094 -0.17300
N 	N 	0.85086 0.78385 0.21858 -0.09000
N 	N 	0.02179 -0.01619 0.61273 -0.09500
N 	N 	0.03384 -0.05304 0.54944 -0.19200
N 	N 	0.03582 -0.12361 0.65561 -0.20200
N 	N 	0.02779 -0.13223 0.78905 -0.10100
N 	N 	0.12080 -0.04149 0.39032 -0.24200
N 	N 	0.12004 -0.11233 0.49867 -0.20400
N 	N 	0.19365 -0.09541 0.54158 -0.21000
N 	N 	0.24610 -0.01274 0.46415 -0.12600
Cl	Cl	0.86997 0.06925 0.75739 -0.75800
Cl	Cl	0.14821 -0.19011 0.83325 -0.78200
C 	C 	0.08811 0.63301 0.55932 0.11300
C 	C 	0.80405 0.68715 0.27462 0.18800
C 	C 	0.01956 -0.06416 0.76071 0.09600
C 	C 	0.20012 0.02000 0.36926 0.18000
C 	C 	0.97334 0.09629 0.39436 -0.01100
O 	O 	0.94238 0.07824 0.51201 -0.14800
C 	C 	0.87732 0.08760 0.44756 0.07300
C 	C 	0.78869 1.00346 0.41382 0.06300
I 	I 	0.74847 0.85768 0.48010 -0.08300
C 	C 	0.72501 1.01420 0.35165 -0.08700
C 	C 	0.74819 1.10656 0.33566 0.06400
C 	C 	0.67898 1.11444 0.29035 -0.11000
C 	C 	0.64556 1.07646 0.43006 -0.05600
C 	C 	0.57939 0.96485 0.45397 0.00600
C 	C 	0.60246 0.90883 0.57878 -0.04500
C 	C 	0.53921 0.80681 0.61081 -0.03000
C 	C 	0.45179 0.75958 0.51922 -0.03300
P 	P 	0.36464 0.63345 0.58697 0.18500
O 	O 	0.40916 0.62416 0.76751 -0.19900
C 	C 	0.27918 0.62753 0.58338 -0.01600
C 	C 	0.19434 0.57011 0.48174 -0.04400
C 	C 	0.13107 0.56948 0.47653 -0.00400
C 	C 	0.15244 0.62738 0.57144 -0.06700
C 	C 	0.23736 0.68354 0.67449 -0.00900
C 	C 	0.30021 0.68387 0.67983 -0.05200
C 	C 	0.32471 0.52366 0.52633 -0.02100
C 	C 	0.35396 0.53343 0.41694 -0.03000
C 	C 	0.31760 0.44931 0.36312 -0.02600
C 	C 	0.25391 0.35440 0.42249 -0.01300
C 	C 	0.22684 0.34495 0.53577 -0.02900
C 	C 	0.26103 0.42912 0.58493 -0.01800
C 	C 	0.42933 0.81439 0.39062 -0.02800
C 	C 	0.49239 0.91633 0.35834 -0.05200
C 	C 	0.83653 1.18916 0.37958 -0.05300
C 	C 	0.90077 0.17929 0.43881 0.04200
I 	I 	1.02661 0.28690 0.57589 -0.11900
H 	H 	0.03868 0.11675 0.44715 0.02000
H 	H 	0.98732 0.16483 0.31427 0.05600
H 	H 	0.65726 0.94950 0.32374 0.06400
H 	H 	0.62442 1.07373 0.18731 0.06800
H 	H 	0.70699 1.19339 0.25343 0.06800
H 	H 	0.61524 1.10864 0.40833 0.03900
H 	H 	0.70152 1.10440 0.54010 -0.01800
H 	H 	0.66911 0.94482 0.65342 -0.04300
H 	H 	0.55781 0.76566 0.71132 0.03800
H 	H 	0.17737 0.52666 0.40587 0.04500
H 	H 	0.06613 0.52564 0.39590 0.04300
H 	H 	0.25554 0.72753 0.75090 -0.10000
H 	H 	0.36556 0.72862 0.75873 0.03500
H 	H 	0.40321 0.60593 0.37088 0.04000
H 	H 	0.33753 0.45822 0.27207 0.05300
H 	H 	0.17500 0.27302 0.57752 0.04200
H 	H 	0.23679 0.42078 0.66724 0.04800
H 	H 	0.36182 0.77939 0.32064 0.03000
H 	H 	0.47223 0.95783 0.26427 0.03800
H 	H 	0.85542 0.25914 0.38052 0.05500
C 	C 	0.84895 0.29389 0.81200 -0.12300
O 	O 	0.83572 0.30429 0.92866 -0.17200
C 	C 	0.78702 0.33638 0.86450 0.06400
C 	C 	0.82977 0.43770 0.84553 0.03200
I 	I 	0.96694 0.54131 0.91647 -0.11500
C 	C 	0.78218 0.47083 0.78766 -0.08000
C 	C 	0.69173 0.40304 0.75677 0.05100
C 	C 	0.64501 0.43953 0.72928 -0.09000
C 	C 	0.55840 0.39724 0.59365 -0.09100
C 	C 	0.49688 0.38464 0.64010 0.04500
C 	C 	0.50473 0.46713 0.62406 -0.06500
C 	C 	0.46902 0.46522 0.70993 -0.00600
C 	C 	0.42518 0.38098 0.81247 -0.03600
P 	P 	0.41620 0.39558 0.97443 0.17400
O 	O 	0.38091 0.45352 0.89633 -0.19300
C 	C 	0.34108 0.28582 1.08384 0.00600
C 	C 	0.35652 0.28877 1.23966 -0.12100
C 	C 	0.30534 0.20227 0.32970 0.10700
C 	C 	0.23723 0.11275 1.26383 -0.16200
C 	C 	0.22171 0.11098 1.10698 0.02200
C 	C 	0.27117 0.19768 1.01542 -0.07400
C 	C 	0.52764 0.48202 1.09472 0.00900
C 	C 	0.57409 0.44730 1.19927 -0.12700
C 	C 	0.66423 0.51406 0.26293 0.10400
C 	C 	0.70876 0.61621 1.21831 -0.14000
C 	C 	0.66146 0.65066 1.11739 0.02500
C 	C 	0.57141 0.58387 1.05691 -0.07200
C 	C 	0.41183 0.29619 0.81946 -0.01800
C 	C 	0.44674 0.29767 0.73255 -0.06500
C 	C 	0.64936 0.30116 0.78010 -0.08200
C 	C 	0.69630 0.26790 0.82945 0.02400
I 	I 	0.62830 1.11412 0.85170 -0.22000
H 	H 	0.87143 0.36058 0.72235 0.07500
H 	H 	0.78728 0.22752 -0.24852 0.04800
H 	H 	0.81654 0.54929 0.77595 0.05400
H 	H 	0.68748 0.52173 0.70566 0.05300
H 	H 	0.63439 0.42010 0.84399 0.04900
H 	H 	0.52847 0.32547 0.56624 0.04900
H 	H 	0.56982 0.44956 0.48365 0.05900
H 	H 	0.54479 0.53574 0.55604 0.05300
H 	H 	0.48275 0.53258 0.70749 0.04400
H 	H 	0.41023 0.35699 1.29298 0.04500
H 	H 	0.32137 0.20382 0.45308 0.00900
H 	H 	0.17639 0.04174 1.05935 0.02800
H 	H 	0.25786 0.19468 0.89441 0.04800
H 	H 	0.54094 0.36865 1.22595 0.04200
H 	H 	0.69940 0.48588 0.34160 0.02000
H 	H 	0.69433 0.72922 1.08240 0.02100
H 	H 	0.53694 0.61199 0.97288 0.06300
H 	H 	0.38207 0.23217 0.90331 0.02500
H 	H 	0.44153 0.23411 0.74865 0.03500
H 	H 	0.58030 0.24718 0.76384 0.04600
