data_crystal

_cell_length_a 22.43950
_cell_length_b 20.12370
_cell_length_c 9.47210
_cell_angle_alpha 60.62900
_cell_angle_beta  130.15980
_cell_angle_gamma 135.04360

_symmetry_space_group_name_	'P 1'
_symmetry_space_group_name_H-M	'P 1'

loop_
_symmetry_equiv_pos_as_xyz
  x,y,z

loop_
_atom_site_label
_atom_site_type_symbol
_atom_site_fract_x
_atom_site_fract_y
_atom_site_fract_z
_atom_site_charge
Mn	Mn	0.82090 0.14694 0.58194 1.24000
Mn	Mn	1.05451 0.21831 0.86531 1.27300
Mn	Mn	0.29430 -0.12094 0.77594 1.20600
Mn	Mn	0.08775 0.85520 0.58947 1.27800
Mn	Mn	0.07283 0.03826 0.22981 1.25300
C 	C 	0.90104 0.26572 -0.16630 0.14000
N 	N 	0.92222 0.25538 -0.25500 -0.22300
N 	N 	1.01392 0.28732 -0.14809 -0.14700
N 	N 	0.05056 0.32288 -0.00304 -0.06800
N 	N 	0.98188 0.30917 -0.00903 -0.00900
N 	N 	0.21073 0.32292 0.20253 -0.09500
N 	N 	0.15516 0.24253 0.13328 -0.20900
N 	N 	0.16453 0.17868 0.26742 -0.19400
N 	N 	0.22389 0.21517 0.43006 -0.09800
C 	C 	0.25366 0.30569 0.38661 0.12000
C 	C 	0.07640 0.05680 0.78661 0.02700
N 	N 	1.08047 0.13812 0.87509 -0.18400
N 	N 	1.08136 0.13502 0.74020 -0.04000
N 	N 	0.95824 1.04359 0.07619 -0.17700
N 	N 	0.94959 0.10088 -0.07286 -0.21300
N 	N 	0.85945 1.07271 -0.18156 -0.15300
N 	N 	0.80508 0.99663 -0.10690 -0.09100
N 	N 	0.07357 0.06495 0.99470 -0.25500
N 	N 	0.07139 1.01235 0.94429 -0.03400
C 	C 	0.86756 0.97867 0.05519 0.18300
N 	N 	0.16185 0.76709 0.62868 -0.23700
N 	N 	0.08428 0.75740 0.56850 -0.19600
N 	N 	0.00538 0.67952 0.48016 -0.05700
N 	N 	0.02985 0.63710 0.47685 -0.08400
N 	N 	0.89448 0.74983 0.27455 -0.08600
N 	N 	0.97638 0.83347 0.33212 -0.19000
N 	N 	0.97745 0.89794 0.19344 -0.16500
N 	N 	0.89481 0.85826 0.03879 -0.07800
N 	N 	0.07090 0.06174 0.51285 -0.07300
N 	N 	0.07643 0.01389 0.46907 -0.23500
N 	N 	0.08940 0.95253 0.60661 -0.17100
N 	N 	0.08993 0.95636 0.74273 -0.06000
N 	N 	0.18453 0.02902 0.37600 -0.24300
N 	N 	0.18331 -0.04267 0.49556 -0.22300
N 	N 	0.26097 -0.03468 0.56377 -0.21200
N 	N 	0.31499 0.04127 0.48814 -0.08900
Cl	Cl	0.94238 0.19226 0.56839 -0.65800
Cl	Cl	0.22122 0.88018 0.86889 -0.70600
C 	C 	0.12732 0.69184 0.56807 0.11300
C 	C 	0.84487 0.76607 0.09251 0.10800
C 	C 	0.07928 0.02531 0.68244 0.05600
C 	C 	0.26693 0.08083 0.37036 0.12300
C 	C 	0.83989 0.90406 0.19996 -0.09200
C 	C 	0.78925 0.91220 0.23692 -0.06600
C 	C 	0.82966 1.00052 0.26914 0.25500
F 	F 	0.91878 0.07648 0.28918 -0.42000
C 	C 	0.77331 1.01446 0.25424 0.29200
F 	F 	0.80654 0.10356 0.24461 -0.43600
C 	C 	0.68019 0.93921 0.23020 -0.15200
C 	C 	0.62107 0.96095 0.20310 0.09200
C 	C 	0.55532 0.88719 0.28683 0.00100
C 	C 	0.58813 0.84960 0.46968 -0.01500
C 	C 	0.52288 0.77496 0.53713 -0.02400
C 	C 	0.42491 0.73782 0.42240 -0.00800
P 	P 	0.33419 0.62536 0.48972 0.19800
O 	O 	0.25506 0.59050 1.29075 -0.21100
C 	C 	0.27024 0.63622 0.53000 -0.01100
C 	C 	0.31790 0.67867 0.68732 -0.03800
C 	C 	0.27381 0.69935 0.70255 -0.01500
C 	C 	0.18134 0.67685 0.56114 -0.04500
C 	C 	0.13455 0.63394 0.40642 -0.00500
C 	C 	0.17768 0.61337 0.39135 -0.02800
C 	C 	0.34152 0.52531 0.57260 -0.02000
C 	C 	0.26319 0.43383 0.58517 -0.01900
C 	C 	0.24228 0.35611 0.55501 -0.03200
C 	C 	0.29969 0.36944 0.51222 -0.01500
C 	C 	0.38498 0.45900 0.52536 -0.02900
C 	C 	0.40515 0.53634 0.55331 -0.02600
C 	C 	0.39459 0.78220 0.24726 -0.01400
C 	C 	0.45904 0.85556 0.17916 0.02200
C 	C 	0.64172 0.84893 0.21078 0.27500
F 	F 	0.55013 0.77469 1.17858 -0.44500
C 	C 	0.69622 0.83547 0.21541 0.20700
F 	F 	0.65825 0.74782 0.19778 -0.41000
H 	H 	0.79265 0.83419 0.15074 0.08700
H 	H 	0.90219 0.90804 0.33142 0.08500
H 	H 	0.66976 0.02819 0.26528 -0.04100
H 	H 	0.57912 0.97212 1.05196 0.03500
H 	H 	0.66292 0.87503 0.55679 0.04000
H 	H 	0.54783 0.74332 0.67495 0.04000
H 	H 	0.38977 0.69773 0.79542 0.06800
H 	H 	0.31074 0.73102 0.82488 0.00500
H 	H 	0.06390 0.61683 0.29409 0.05200
H 	H 	0.13857 0.58244 0.26584 0.07500
H 	H 	0.21205 0.42336 0.59723 0.03600
H 	H 	0.17387 0.28847 0.53693 0.06400
H 	H 	0.43014 0.47086 0.49221 0.04900
H 	H 	0.46477 0.60560 0.53806 0.05500
H 	H 	0.31985 0.75692 1.15862 0.01300
H 	H 	0.43299 0.88570 1.03998 -0.07000
C 	C 	0.80240 0.18952 -0.18111 -0.01700
C 	C 	0.75372 0.20806 -0.15987 -0.08000
C 	C 	0.65202 0.15270 -0.26153 0.25100
F 	F 	0.60297 0.10661 0.59196 -0.46100
C 	C 	0.59868 0.13614 -0.20394 0.23100
F 	F 	0.50118 0.07582 -0.29706 -0.44100
C 	C 	0.64511 0.17368 -0.04239 -0.11300
C 	C 	0.58856 0.13381 0.04824 -0.01200
C 	C 	0.58195 0.20273 0.04821 0.04300
C 	C 	0.52059 0.22625 -0.11493 -0.04700
C 	C 	0.50481 0.28018 -0.10828 -0.01200
C 	C 	0.54988 0.31062 0.06108 -0.02600
P 	P 	0.52774 0.38217 0.06441 0.19700
O 	O 	0.59991 0.40700 0.27032 -0.18600
C 	C 	0.41425 0.30556 0.07072 -0.00900
C 	C 	0.40901 0.32606 0.18304 -0.04300
C 	C 	0.35065 0.25254 0.26651 0.01800
C 	C 	0.29568 0.15832 0.23487 -0.05100
C 	C 	0.29340 0.13979 0.10620 0.00300
C 	C 	0.35023 0.21276 0.02144 -0.03300
C 	C 	0.58983 0.50104 -0.04040 -0.05900
C 	C 	0.66107 0.52707 -0.06025 0.09200
C 	C 	0.74091 0.62051 0.95233 -0.13000
C 	C 	0.74817 0.68967 -0.02426 0.06600
C 	C 	0.66772 0.66653 -0.04407 -0.05800
C 	C 	0.59052 0.57158 -0.04246 0.02000
C 	C 	0.61269 0.28864 0.22334 -0.00100
C 	C 	0.62870 0.23525 0.21672 -0.02500
C 	C 	0.74616 0.23706 0.04859 0.24600
F 	F 	0.79284 0.27511 0.20445 -0.44400
C 	C 	0.80029 0.25412 -0.00904 0.25900
F 	F 	0.89742 0.30753 0.09534 -0.36200
H 	H 	0.80491 0.13133 -0.07901 0.07100
H 	H 	0.75448 0.16066 0.68214 -0.04600
H 	H 	0.51434 0.06996 -0.01836 0.02500
H 	H 	0.62281 0.10937 0.19278 0.00900
H 	H 	0.48302 0.20032 -0.24529 0.07600
H 	H 	0.45615 0.29691 -0.23430 0.04600
H 	H 	0.45826 0.39734 0.22329 0.06000
H 	H 	0.35702 0.26870 1.37074 -0.00000
H 	H 	0.25426 0.06791 0.08322 0.04600
H 	H 	0.35313 0.19449 -0.06310 0.05200
H 	H 	0.66251 0.47461 0.93955 -0.00100
H 	H 	0.80233 0.63653 0.96855 0.07700
H 	H 	0.67038 0.71987 -0.03475 0.08000
H 	H 	0.53663 0.55312 -0.02613 0.05000
H 	H 	0.64888 0.31151 0.35583 0.06600
H 	H 	0.67638 0.21783 0.34400 0.04700
