data_crystal

_cell_length_a 21.63960
_cell_length_b 19.32870
_cell_length_c 9.51590
_cell_angle_alpha 70.38980
_cell_angle_beta  93.29610
_cell_angle_gamma 133.24550

_symmetry_space_group_name_	'P 1'
_symmetry_space_group_name_H-M	'P 1'

loop_
_symmetry_equiv_pos_as_xyz
  x,y,z

loop_
_atom_site_label
_atom_site_type_symbol
_atom_site_fract_x
_atom_site_fract_y
_atom_site_fract_z
_atom_site_charge
Mn	Mn	0.85936 0.18252 0.92354 1.21700
Mn	Mn	1.04919 0.23937 0.89998 1.27600
Mn	Mn	0.19200 -0.10853 0.43141 1.25300
Mn	Mn	0.00430 0.83606 0.47801 1.30300
Mn	Mn	0.02497 0.03952 0.20059 1.28100
C 	C 	0.98999 0.38890 -0.03869 0.14600
N 	N 	0.97079 0.31126 -0.05925 -0.23000
N 	N 	1.04313 0.33268 -0.06429 -0.15600
N 	N 	1.10585 0.42112 -0.04908 0.00900
N 	N 	1.07411 0.45765 -0.03049 -0.02500
N 	N 	0.18379 0.35545 0.05433 -0.06300
N 	N 	0.13168 0.26735 0.03681 -0.17000
N 	N 	0.11637 0.19431 0.15861 -0.17700
N 	N 	0.15438 0.23252 0.26220 -0.06700
C 	C 	0.19819 0.33358 0.19387 0.21000
C 	C 	0.03288 0.05486 0.75994 0.12900
N 	N 	1.05098 0.14630 0.86239 -0.19400
N 	N 	1.04558 0.13727 0.72992 -0.05900
N 	N 	0.93172 0.04421 0.19774 -0.22800
N 	N 	0.94347 0.11624 0.07931 -0.17600
N 	N 	0.87457 0.10144 0.09157 -0.19000
N 	N 	0.81669 1.02352 0.22229 -0.08200
N 	N 	0.04148 0.07319 0.96943 -0.19900
N 	N 	0.02998 0.01355 0.90881 -0.08200
C 	C 	0.85255 0.98903 0.29134 0.16400
N 	N 	0.07947 0.76596 0.41192 -0.23800
N 	N 	0.00763 0.74512 0.42419 -0.16400
N 	N 	-0.05599 0.65856 0.40479 -0.00200
N 	N 	-0.02576 0.62154 0.37983 -0.06100
N 	N 	0.85589 0.72192 0.34718 -0.06600
N 	N 	0.92208 0.81326 0.34838 -0.19300
N 	N 	0.93164 0.88555 0.23877 -0.17700
N 	N 	0.87095 0.84193 0.16109 -0.05900
N 	N 	0.01509 0.05306 0.50165 -0.06700
N 	N 	0.00792 -0.00020 0.43240 -0.18600
N 	N 	0.00476 -0.07060 0.53058 -0.18200
N 	N 	0.01027 -0.06515 0.66626 -0.06500
N 	N 	0.12066 0.03901 0.20303 -0.21700
N 	N 	0.10516 -0.04267 0.29521 -0.19100
N 	N 	0.17515 -0.02506 0.27402 -0.18700
N 	N 	0.23919 0.06862 0.16751 -0.07700
Cl	Cl	0.94864 0.20239 0.76086 -0.70300
Cl	Cl	0.10579 -0.13291 0.61060 -0.67100
C 	C 	0.05907 0.68972 0.38457 0.19400
C 	C 	0.82344 0.73886 0.23154 0.17800
C 	C 	0.01676 0.01215 0.64608 0.12300
C 	C 	0.20667 0.11022 0.12425 0.19200
C 	C 	0.11847 0.67682 0.37981 -0.12400
C 	C 	0.15537 0.67302 0.50468 0.11900
Cl	Cl	0.12001 0.66858 0.67427 -0.31800
C 	C 	0.21788 0.66943 0.49857 0.11600
Cl	Cl	0.25903 0.66585 0.66365 -0.23900
C 	C 	0.24360 0.66753 0.36562 -0.00100
C 	C 	0.31151 0.66311 0.34870 0.03300
C 	C 	0.27893 0.56406 0.34185 -0.00400
C 	C 	0.18897 0.46757 0.38871 0.12600
Cl	Cl	0.10695 0.44056 0.50000 -0.27900
C 	C 	0.16260 0.38834 0.34860 0.15000
Cl	Cl	0.04969 0.27741 0.37924 -0.27400
C 	C 	0.22529 0.39899 0.27708 -0.07300
C 	C 	0.31422 0.48608 0.25401 0.16300
Cl	Cl	0.39209 0.49026 0.19140 -0.17100
C 	C 	0.34142 0.57040 0.27772 0.12000
Cl	Cl	0.45500 0.68683 0.21260 -0.22400
C 	C 	0.38175 0.71053 0.43905 -0.00900
C 	C 	0.45589 0.81995 0.37672 0.11800
Cl	Cl	0.45808 0.90406 0.22017 -0.22400
C 	C 	0.53025 0.86347 0.43554 0.14100
Cl	Cl	0.62729 0.99752 0.33761 -0.28900
C 	C 	0.52898 0.80007 0.56619 -0.05900
C 	C 	0.61274 0.84333 0.60892 0.09300
C 	C 	0.65499 0.92154 0.66350 -0.03100
C 	C 	0.74462 -0.01158 0.65476 0.01400
C 	C 	0.79409 -0.01880 0.58524 -0.07600
C 	C 	0.75262 0.90006 0.53772 0.09500
C 	C 	0.80253 0.90059 0.44597 -0.05600
C 	C 	0.75942 0.80456 0.44573 0.01600
C 	C 	0.66832 0.72588 0.47891 0.00000
C 	C 	0.61896 0.73982 0.52480 0.01400
C 	C 	0.65998 0.82575 0.56035 -0.00500
C 	C 	0.45074 0.69458 0.64303 0.13100
Cl	Cl	0.44305 0.61930 0.82154 -0.22200
C 	C 	0.37900 0.64829 0.57677 0.14100
Cl	Cl	0.28516 0.51285 0.67389 -0.27600
C 	C 	0.20371 0.66929 0.24148 0.10800
Cl	Cl	0.22999 0.66533 0.07302 -0.19800
C 	C 	0.14176 0.67367 0.24930 0.15300
Cl	Cl	0.09565 0.67951 0.09140 -0.22500
H 	H 	0.34972 0.71878 0.22768 0.10500
H 	H 	0.61968 0.93527 0.70294 0.07800
H 	H 	0.77671 0.05022 0.69310 0.02500
H 	H 	0.86459 0.03857 0.56880 0.09400
H 	H 	0.79542 0.79211 0.41139 0.06300
H 	H 	0.63627 0.65543 0.46459 0.10400
H 	H 	0.54892 0.68027 0.54025 0.09400
C 	C 	0.27203 0.22315 0.08205 -0.05400
C 	C 	0.32720 0.28825 0.93178 0.11500
Cl	Cl	0.28032 0.26217 0.77584 -0.24000
C 	C 	0.41929 0.36265 0.90914 0.08500
Cl	Cl	0.48689 0.43625 0.72073 -0.21100
C 	C 	0.45574 0.37321 0.03813 0.06300
C 	C 	0.54327 0.40510 0.04218 0.00400
C 	C 	0.61095 0.49178 0.09736 0.05500
C 	C 	0.63372 0.58621 1.04578 0.08800
Cl	Cl	0.58182 0.60846 0.91714 -0.21000
C 	C 	0.70306 0.66759 1.08731 0.10700
Cl	Cl	0.73307 0.78682 1.00855 -0.28200
C 	C 	0.74622 0.65283 0.19145 -0.02400
C 	C 	0.71468 0.55277 0.25838 0.14800
Cl	Cl	0.74546 0.51393 0.41891 -0.25000
C 	C 	0.65335 0.47696 0.20347 0.10900
Cl	Cl	0.63133 0.36241 0.27051 -0.26400
C 	C 	0.58512 0.39990 -0.07528 0.07600
C 	C 	0.54872 0.30119 -0.05646 0.09700
Cl	Cl	0.43671 0.18784 0.03422 -0.25500
C 	C 	0.60252 0.29125 -0.10062 0.21200
Cl	Cl	0.55770 0.16677 -0.06334 -0.23000
C 	C 	0.69312 0.37921 0.83794 -0.14300
C 	C 	0.75331 0.36845 0.81653 0.12000
C 	C 	0.75728 0.34835 0.69064 -0.07000
C 	C 	0.81785 0.34634 0.65853 0.01700
C 	C 	0.87479 0.36301 0.75238 -0.09800
C 	C 	0.87056 0.37938 0.88387 -0.00200
C 	C 	0.92729 0.39538 -0.01767 -0.00200
C 	C 	0.92422 0.41759 0.10630 0.01200
C 	C 	0.86454 0.42108 0.13673 -0.02500
C 	C 	0.80721 0.40323 0.04347 0.06500
C 	C 	0.80963 0.38332 0.91526 -0.06500
C 	C 	0.72722 0.47825 0.80008 0.18600
Cl	Cl	0.84083 0.59000 0.72309 -0.33700
C 	C 	0.67234 0.48872 0.83320 0.04700
Cl	Cl	0.71523 0.61443 0.75442 -0.25900
C 	C 	0.39977 0.32768 0.18129 0.11000
Cl	Cl	0.44187 0.34944 0.34400 -0.20000
C 	C 	0.30852 0.25190 0.20370 0.15100
Cl	Cl	0.24280 0.17050 0.39647 -0.25900
H 	H 	0.51617 0.33477 0.14416 0.09600
H 	H 	0.71408 0.33574 0.61552 0.10800
H 	H 	0.82127 0.33270 0.55917 0.03900
H 	H 	0.92268 0.36435 0.71913 0.02200
H 	H 	0.96769 0.43089 0.18132 0.08100
H 	H 	0.86248 0.43740 0.23373 0.08100
H 	H 	0.76143 0.40589 0.07215 0.07800
