data_crystal

_cell_length_a 45.03250
_cell_length_b 40.21150
_cell_length_c 7.28940
_cell_angle_alpha 80.43790
_cell_angle_beta  86.51880
_cell_angle_gamma 89.98990

_symmetry_space_group_name_	'P 1'
_symmetry_space_group_name_H-M	'P 1'

loop_
_symmetry_equiv_pos_as_xyz
  x,y,z

loop_
_atom_site_label
_atom_site_type_symbol
_atom_site_fract_x
_atom_site_fract_y
_atom_site_fract_z
_atom_site_charge
Mn	Mn	0.40156 0.58858 0.29315 1.24400
Mn	Mn	0.38145 0.57951 0.54402 1.19900
Cl	Cl	0.43042 0.59650 1.01905 -0.44600
O 	O 	0.37900 0.53091 0.55657 -0.46000
O 	O 	0.41867 0.54524 0.36178 -0.46400
O 	O 	0.43002 0.61057 0.40866 -0.49000
C 	C 	0.40312 0.52238 0.46522 0.29900
C 	C 	0.41652 0.63307 0.48430 0.27500
O 	O 	0.38790 0.62806 0.53231 -0.49100
C 	C 	0.34501 0.57370 0.26191 0.30500
O 	O 	0.34339 0.58413 0.42400 -0.47900
O 	O 	0.37035 0.56985 0.18190 -0.48800
Mn	Mn	0.88635 0.92653 0.83310 1.25000
Mn	Mn	0.88502 0.90561 0.09718 1.20500
Cl	Cl	0.88494 0.94440 0.51986 -0.37800
O 	O 	0.91486 0.87208 1.06440 -0.44700
O 	O 	0.89482 0.88149 0.78982 -0.46400
O 	O 	0.92741 0.93651 0.82786 -0.43800
C 	C 	0.91082 0.86306 0.90334 0.30500
C 	C 	0.93567 0.94309 0.98134 0.37000
O 	O 	0.91669 0.93726 0.12852 -0.42600
C 	C 	0.83406 0.93195 0.99585 0.33600
O 	O 	0.85251 0.93690 1.12258 -0.43500
O 	O 	0.84475 0.91989 0.85560 -0.46900
Mn	Mn	0.37523 0.92248 0.19564 1.24800
Mn	Mn	0.37010 0.90885 0.95057 1.21800
Cl	Cl	0.37508 0.93544 0.48786 -0.43100
O 	O 	0.40194 0.94167 0.85107 -0.41800
O 	O 	0.38649 0.96699 0.08916 -0.44300
O 	O 	0.36746 0.87630 0.29228 -0.47600
C 	C 	0.39981 0.96890 -0.06973 0.28400
C 	C 	0.38451 0.85831 0.20420 0.34100
O 	O 	0.39654 0.87224 0.04025 -0.46400
C 	C 	0.32540 0.94819 0.02215 0.36300
O 	O 	0.34117 0.94290 -0.12704 -0.42600
O 	O 	0.33420 0.93541 0.18145 -0.44300
Mn	Mn	0.12744 0.40304 0.46970 1.24600
Mn	Mn	0.13037 0.41937 0.18124 1.21500
Cl	Cl	0.12481 0.38811 0.78100 -0.46100
O 	O 	0.10558 0.38142 0.14656 -0.43400
O 	O 	0.09688 0.37052 0.45394 -0.45400
O 	O 	0.09801 0.43706 0.47889 -0.43600
C 	C 	0.09149 0.36446 0.29454 0.31200
C 	C 	0.08570 0.45200 0.33523 0.37800
O 	O 	0.09537 0.44685 0.16948 -0.41200
C 	C 	0.16680 0.45701 0.36135 0.39600
O 	O 	0.15488 0.45878 0.20030 -0.45200
O 	O 	0.15800 0.43437 0.49638 -0.47800
Mn	Mn	0.11996 0.11593 0.91785 1.31200
Mn	Mn	0.13404 0.08260 0.41815 1.26400
Cl	Cl	0.07740 0.11444 0.76249 -0.45700
O 	O 	0.13011 0.13201 0.33826 -0.44900
O 	O 	0.09652 0.12693 0.12618 -0.42100
O 	O 	0.11588 0.06812 0.99810 -0.47900
C 	C 	0.10797 0.14383 0.23638 0.39400
C 	C 	0.10519 0.05244 0.15380 0.34500
O 	O 	0.09949 0.06761 0.29824 -0.42400
C 	C 	0.17102 0.09199 0.07974 0.33200
O 	O 	0.16548 0.07130 0.23731 -0.46100
O 	O 	0.15555 0.11801 0.04192 -0.48000
Mn	Mn	0.62421 0.06902 0.87884 1.25000
Mn	Mn	0.61419 0.06843 0.14662 1.21300
Cl	Cl	0.64156 0.07269 0.57394 -0.45100
O 	O 	0.60994 0.11679 1.12916 -0.40200
O 	O 	0.64087 0.11248 0.88622 -0.44100
O 	O 	0.58794 0.08866 0.80714 -0.44600
C 	C 	0.62931 0.13084 0.99706 0.36300
C 	C 	0.56654 0.07728 0.92170 0.37800
O 	O 	0.57242 0.06312 0.09186 -0.44000
C 	C 	0.64813 0.01844 1.07091 0.25600
O 	O 	0.62199 0.02058 1.15990 -0.46400
O 	O 	0.65810 0.04445 0.96085 -0.45700
Mn	Mn	0.86709 0.58799 0.69677 1.24900
Mn	Mn	0.86662 0.60023 0.42420 1.21500
Cl	Cl	0.86480 0.57937 0.01492 -0.43900
O 	O 	0.88698 0.64334 0.40952 -0.42800
O 	O 	0.86492 0.63564 0.69256 -0.45000
O 	O 	0.90876 0.59092 0.68833 -0.46200
C 	C 	0.87814 0.65573 0.55900 0.36000
C 	C 	0.92177 0.58235 0.54473 0.29600
O 	O 	0.90552 0.57719 0.40693 -0.42700
C 	C 	0.81994 0.56413 0.57156 0.33600
O 	O 	0.84161 0.55975 0.44757 -0.44700
O 	O 	0.82553 0.58213 0.69320 -0.45700
Mn	Mn	0.61617 0.41136 0.87710 1.30600
Mn	Mn	0.62281 0.39683 0.39109 1.27200
Cl	Cl	0.58017 0.38978 0.10055 -0.51900
O 	O 	0.65210 0.37507 0.56268 -0.45400
O 	O 	0.61866 0.36760 0.80831 -0.43900
O 	O 	0.58481 0.42687 0.71593 -0.43500
C 	C 	0.64190 0.35851 0.72461 0.31600
C 	C 	0.57241 0.41041 0.60660 0.40800
O 	O 	0.58567 0.38496 0.54504 -0.41000
C 	C 	0.64342 0.45131 0.55938 0.33800
O 	O 	0.62655 0.44407 0.43006 -0.45100
O 	O 	0.64790 0.43005 0.70273 -0.49700
C 	C 	0.43197 0.66490 0.49312 -0.00800
C 	C 	0.46316 0.66637 0.47118 -0.05800
C 	C 	0.47821 0.69740 0.43512 0.11500
C 	C 	0.51136 0.69890 0.39723 -0.21700
C 	C 	0.46189 0.72728 0.42144 -0.09900
C 	C 	0.43070 0.72625 0.44663 0.11500
C 	C 	0.41395 0.75815 0.40527 -0.05600
C 	C 	0.41776 0.78403 0.51062 0.12100
Cl	Cl	0.43741 0.77623 0.71562 -0.24000
C 	C 	0.40684 0.81656 0.44957 0.17000
Cl	Cl	0.41473 0.84961 0.57193 -0.26500
C 	C 	0.39185 0.82325 0.28386 -0.12800
C 	C 	0.38667 0.79696 0.18364 0.16700
Cl	Cl	0.36727 0.80489 0.97746 -0.24700
C 	C 	0.39758 0.76447 0.24446 0.11500
Cl	Cl	0.39267 0.73256 1.10845 -0.24700
C 	C 	0.41584 0.69496 0.48752 -0.04200
H 	H 	0.47569 0.64331 0.47216 0.08300
H 	H 	0.52163 0.71347 0.49373 0.09500
H 	H 	0.52113 0.67325 0.41568 0.09100
H 	H 	0.51683 0.71136 0.25166 0.09300
H 	H 	0.47341 0.75135 0.38432 0.09200
H 	H 	0.39174 0.69419 0.49892 0.09000
C 	C 	0.92532 0.83265 0.85515 -0.00800
C 	C 	0.95465 0.82582 0.90345 -0.04900
C 	C 	0.96867 0.79636 0.86657 0.12900
C 	C 	1.00039 0.78946 0.91174 -0.22100
C 	C 	0.95279 0.77298 0.78769 -0.09500
C 	C 	0.92335 0.77932 0.73932 0.11800
C 	C 	0.90674 0.75269 0.66863 -0.06000
C 	C 	0.91712 0.74176 0.50327 0.12000
Cl	Cl	0.94413 0.76625 0.35266 -0.28600
C 	C 	0.90669 0.71121 0.45911 0.16100
Cl	Cl	0.92243 0.69813 0.25490 -0.24900
C 	C 	0.88489 0.69149 0.57928 -0.12000
C 	C 	0.87143 0.70553 0.73008 0.16200
Cl	Cl	0.83968 0.68664 0.86227 -0.22800
C 	C 	0.88295 0.73527 0.77759 0.12500
Cl	Cl	0.86874 0.74930 -0.01724 -0.24600
C 	C 	0.90994 0.80976 0.76842 -0.03800
H 	H 	0.96662 0.84360 0.96915 0.08800
H 	H 	1.01385 0.78673 0.78273 0.09800
H 	H 	1.01016 0.81032 0.97161 0.10200
H 	H 	1.00159 0.76578 1.01361 0.10800
H 	H 	0.96334 0.74967 0.76426 0.09200
H 	H 	0.88721 0.81483 0.73209 0.08700
C 	C 	0.07049 0.33801 0.26474 -0.00800
C 	C 	0.04671 0.34756 0.15133 -0.05700
C 	C 	0.03411 0.32442 0.05269 0.13200
C 	C 	0.01007 0.33454 0.92162 -0.22900
C 	C 	0.04504 0.29167 0.07057 -0.10300
C 	C 	0.06727 0.28105 0.19292 0.11500
C 	C 	0.07814 0.24596 0.20996 -0.05800
C 	C 	0.05812 0.21870 0.26824 0.11200
Cl	Cl	0.02059 0.22610 0.33626 -0.24000
C 	C 	0.06790 0.18538 0.27663 0.17000
Cl	Cl	0.04218 0.15166 0.34359 -0.19900
C 	C 	0.09808 0.17885 0.23456 -0.16300
C 	C 	0.11827 0.20596 0.17911 0.16000
Cl	Cl	0.15608 0.19819 0.12081 -0.28300
C 	C 	0.10822 0.23937 0.16223 0.11100
Cl	Cl	0.13302 0.27293 0.06932 -0.26400
C 	C 	0.07965 0.30428 0.29230 -0.04200
H 	H 	0.03940 0.37350 0.13015 0.08900
H 	H 	-0.01000 0.31852 -0.03247 0.11200
H 	H 	0.00392 0.36138 0.91622 0.11800
H 	H 	0.01777 0.33068 0.77925 0.11300
H 	H 	0.03635 0.27434 -0.01293 0.10100
H 	H 	0.09808 0.29669 0.37820 0.08200
C 	C 	0.65909 0.33099 0.82178 -0.04800
C 	C 	0.68352 0.33841 0.91841 -0.06800
C 	C 	0.69815 0.31246 1.02970 0.10800
C 	C 	0.72360 0.32018 1.13956 -0.21700
C 	C 	0.68843 0.27901 1.04130 -0.09900
C 	C 	0.66424 0.27143 0.94235 0.11000
C 	C 	0.65470 0.23595 0.95114 -0.05800
C 	C 	0.67358 0.21350 0.87325 0.12300
Cl	Cl	0.70731 0.22851 0.74962 -0.25400
C 	C 	0.66558 0.17930 0.88940 0.16100
Cl	Cl	0.69181 0.15205 0.80229 -0.20800
C 	C 	0.63774 0.16733 0.97788 -0.11100
C 	C 	0.61821 0.19060 1.04834 0.16200
Cl	Cl	0.58195 0.17857 1.14393 -0.18600
C 	C 	0.62695 0.22453 1.03761 0.12300
Cl	Cl	0.60315 0.25274 1.13649 -0.23000
C 	C 	0.64951 0.29758 0.83348 -0.03300
H 	H 	0.69054 0.36441 0.91072 0.04200
H 	H 	0.74377 0.30678 1.09704 0.11000
H 	H 	0.72864 0.34765 1.11720 0.09000
H 	H 	0.71789 0.31161 0.29005 0.09700
H 	H 	0.69964 0.25888 1.12743 0.10400
H 	H 	0.63052 0.29190 0.75912 0.08600
C 	C 	0.31776 0.56720 0.17322 -0.03400
C 	C 	0.31411 0.58192 -0.01178 -0.05500
C 	C 	0.28764 0.57689 -0.09530 0.09600
C 	C 	0.28283 0.59374 0.70988 -0.20300
C 	C 	0.26513 0.55631 0.00614 -0.09400
C 	C 	0.26862 0.54143 0.19143 0.10600
C 	C 	0.24498 0.51839 0.28993 -0.05900
C 	C 	0.21843 0.53166 0.36037 0.11400
Cl	Cl	0.21722 0.57436 0.39008 -0.26500
C 	C 	0.19264 0.51109 0.39895 0.17100
Cl	Cl	0.15890 0.52791 0.47732 -0.23300
C 	C 	0.19369 0.47723 0.37119 -0.14500
C 	C 	0.22106 0.46339 0.32011 0.16700
Cl	Cl	0.22273 0.42044 0.29370 -0.30100
C 	C 	0.24656 0.48389 0.27915 0.11600
Cl	Cl	0.27989 0.46659 0.19721 -0.27200
C 	C 	0.29496 0.54692 0.27484 -0.03600
H 	H 	0.33158 0.59798 -0.08867 0.03800
H 	H 	0.26210 0.60872 -0.29027 0.10500
H 	H 	0.30159 0.61099 0.65136 0.09400
H 	H 	0.28055 0.57437 0.61976 0.10400
H 	H 	0.24491 0.55184 -0.05988 0.09400
H 	H 	0.29796 0.53493 0.41659 0.07100
C 	C 	0.66305 -0.01423 1.08229 0.02600
C 	C 	0.64556 -0.04372 0.10591 -0.09900
C 	C 	0.65872 0.92493 0.10048 0.13500
C 	C 	0.63989 0.89368 0.11566 -0.22900
C 	C 	0.68970 0.92289 0.07791 -0.12800
C 	C 	0.70749 0.95208 1.06003 0.14500
C 	C 	0.74016 0.94921 1.04689 -0.05100
C 	C 	0.75491 0.93245 0.20031 0.11700
Cl	Cl	0.73460 0.91717 0.41276 -0.24500
C 	C 	0.78575 0.92778 0.18545 0.15800
Cl	Cl	0.80339 0.90505 0.37713 -0.24900
C 	C 	0.80218 0.93965 1.01643 -0.10600
C 	C 	0.78753 0.95753 0.86512 0.16800
Cl	Cl	0.80792 0.97487 0.65648 -0.20500
C 	C 	0.75667 0.96227 0.88050 0.12700
Cl	Cl	0.73845 0.98372 0.68794 -0.22600
C 	C 	0.69405 -0.01638 1.05812 -0.05500
H 	H 	0.62154 -0.04207 0.12201 0.07800
H 	H 	0.64597 0.87512 0.23733 0.10000
H 	H 	0.61583 0.89934 0.13332 0.09300
H 	H 	0.64362 0.88244 -0.01261 0.09500
H 	H 	0.70004 0.89863 0.07485 0.09900
H 	H 	0.70774 0.00627 1.03944 0.11100
C 	C 	0.19401 0.08372 -0.05868 -0.06100
C 	C 	0.19670 0.10284 0.76127 -0.08500
C 	C 	0.21809 0.09469 0.62842 0.10100
C 	C 	0.22052 0.11519 0.43639 -0.22600
C 	C 	0.23740 0.06779 0.67769 -0.11200
C 	C 	0.23521 0.04879 -0.14242 0.11300
C 	C 	0.25653 0.02128 -0.08853 -0.05900
C 	C 	0.25810 0.99336 0.81782 0.11900
Cl	Cl	0.23287 0.98916 0.64616 -0.27800
C 	C 	0.27976 0.96853 0.86031 0.16400
Cl	Cl	0.28195 0.93447 0.73475 -0.24000
C 	C 	0.29952 0.97083 0.00079 -0.12200
C 	C 	0.29701 0.99809 0.10053 0.16800
Cl	Cl	0.32197 0.00261 0.27311 -0.24600
C 	C 	0.27592 0.02339 0.05395 0.12000
Cl	Cl	0.27570 0.05926 0.16506 -0.28700
C 	C 	0.21321 0.05658 -0.01223 -0.03800
H 	H 	0.18200 0.12385 0.72287 0.01700
H 	H 	0.19806 0.12040 0.38420 0.07800
H 	H 	0.23194 0.13953 0.43966 0.11100
H 	H 	0.23328 0.10167 0.33713 0.11600
H 	H 	0.25444 0.06187 0.57705 0.11100
H 	H 	0.21153 0.04171 0.12616 0.08000
C 	C 	0.65547 0.48570 0.54359 -0.05600
C 	C 	0.63632 0.51325 0.50945 -0.05500
C 	C 	0.64711 0.54621 0.50051 0.11000
C 	C 	0.62676 0.57588 0.46610 -0.21800
C 	C 	0.67729 0.55156 0.52189 -0.09700
C 	C 	0.69703 0.52434 0.54922 0.10800
C 	C 	0.72941 0.53118 0.55156 -0.05700
C 	C 	0.74457 0.55001 0.39308 0.12400
Cl	Cl	0.72627 0.56152 0.18452 -0.24200
C 	C 	0.77435 0.55994 0.39918 0.16500
Cl	Cl	0.79161 0.58667 0.20506 -0.23800
C 	C 	0.78956 0.55064 0.56260 -0.11800
C 	C 	0.77479 0.53093 0.71961 0.16800
Cl	Cl	0.79375 0.51850 0.92452 -0.22900
C 	C 	0.74485 0.52102 0.71374 0.12500
Cl	Cl	0.72647 0.49690 0.91280 -0.27000
C 	C 	0.68582 0.49128 0.56399 -0.03100
H 	H 	0.61293 0.50892 0.49360 0.07700
H 	H 	0.63456 0.59273 0.33584 0.09800
H 	H 	0.60351 0.56788 0.45219 0.09600
H 	H 	0.62697 0.59017 0.58362 0.09400
H 	H 	0.68569 0.57709 0.51316 0.09400
H 	H 	0.70083 0.47010 0.58578 0.07500
C 	C 	0.41133 0.48696 0.47241 -0.01500
C 	C 	0.38999 0.46332 0.44430 -0.06200
C 	C 	0.39852 0.43048 0.42489 0.12400
C 	C 	0.37600 0.40547 0.38605 -0.22900
C 	C 	0.42844 0.42116 0.43902 -0.09900
C 	C 	0.44988 0.44441 0.47370 0.11400
C 	C 	0.48127 0.43422 0.49913 -0.05000
C 	C 	0.48819 0.40860 0.64692 0.11900
Cl	Cl	0.45970 0.38874 0.80526 -0.24900
C 	C 	0.51794 0.39974 0.67528 0.17800
Cl	Cl	0.52600 0.36582 0.85140 -0.19600
C 	C 	0.54122 0.41776 0.56412 -0.14400
C 	C 	0.53447 0.44319 0.41585 0.18000
Cl	Cl	0.56346 0.46555 0.27296 -0.31100
C 	C 	0.50464 0.45089 0.38081 0.11700
Cl	Cl	0.49660 0.48109 0.18542 -0.25300
C 	C 	0.44112 0.47742 0.48816 -0.03800
H 	H 	0.36701 0.47089 0.42994 0.07800
H 	H 	0.37547 0.38301 0.49743 0.11200
H 	H 	0.35332 0.41637 0.38036 0.11100
H 	H 	0.38214 0.39759 0.25025 0.11200
H 	H 	0.43507 0.39581 0.42350 0.10600
H 	H 	0.45751 0.49568 0.51253 0.09000
C 	C 	0.09495 0.01772 0.16263 -0.04800
C 	C 	0.11430 -0.00924 0.20903 -0.06000
C 	C 	0.10467 0.95757 0.21012 0.11400
C 	C 	0.12555 0.92856 0.25144 -0.22100
C 	C 	0.07538 0.95149 0.16764 -0.09300
C 	C 	0.05594 0.97846 0.11965 0.11100
C 	C 	0.02510 0.97202 0.07327 -0.05100
C 	C 	1.01989 0.95571 0.92126 0.11900
Cl	Cl	0.05004 0.94689 0.77002 -0.27300
C 	C 	0.99077 0.94678 0.88749 0.17300
Cl	Cl	0.98601 0.92233 0.71033 -0.24100
C 	C 	0.96622 0.95589 -0.00087 -0.12400
C 	C 	0.97154 0.97522 0.13978 0.17000
Cl	Cl	0.94184 0.99273 0.26089 -0.19300
C 	C 	1.00074 0.98195 0.18132 0.12200
Cl	Cl	1.00662 1.00154 0.37656 -0.21400
C 	C 	0.06602 0.01157 0.11595 -0.02500
H 	H 	0.13686 -0.00425 0.24198 0.04800
H 	H 	0.12795 0.91522 0.13001 0.10100
H 	H 	0.14797 0.93729 0.27978 0.09800
H 	H 	0.11661 0.91071 0.37491 0.10200
H 	H 	0.06781 0.92583 0.16988 0.09300
H 	H 	0.05135 0.03258 0.07601 0.10100
C 	C 	0.41056 1.00149 0.82762 0.00900
C 	C 	0.39364 1.01835 0.68665 -0.06900
C 	C 	0.40375 1.04908 0.58115 0.14400
C 	C 	0.38569 1.06713 0.43001 -0.24100
C 	C 	0.43113 1.06253 0.61601 -0.10500
C 	C 	0.44793 1.04593 0.75874 0.12400
C 	C 	0.47775 0.05868 0.78673 -0.05600
C 	C 	0.50179 1.05362 0.66261 0.12700
Cl	Cl	0.49595 1.03356 0.46940 -0.23600
C 	C 	0.53084 0.06228 0.69894 0.17300
Cl	Cl	0.56073 1.05299 0.54709 -0.29100
C 	C 	0.53596 0.07583 0.86108 -0.11900
C 	C 	0.51157 0.08268 -0.02074 0.16300
Cl	Cl	0.51724 0.10331 0.17024 -0.20100
C 	C 	0.48256 0.07393 -0.05742 0.12300
Cl	Cl	0.45223 0.08184 0.09326 -0.27000
C 	C 	0.43737 1.01551 0.86604 -0.04100
H 	H 	0.37265 1.00756 0.65894 0.10200
H 	H 	0.39716 1.06605 0.29267 0.13700
H 	H 	0.36329 1.05545 0.43314 0.12800
H 	H 	0.38289 0.09391 0.44705 0.11600
H 	H 	0.43951 0.08580 0.53175 0.11600
H 	H 	0.45043 1.00244 -0.02483 0.07900
C 	C 	0.95450 0.58050 0.53310 -0.00300
C 	C 	0.97050 0.60488 0.60469 -0.06000
C 	C 	1.00153 0.60422 0.60306 0.13500
C 	C 	1.01857 0.63100 0.67356 -0.23200
C 	C 	0.01681 0.57808 0.53528 -0.10000
C 	C 	1.00118 0.55317 0.46583 0.12200
C 	C 	0.01792 0.52418 0.41591 -0.06000
C 	C 	0.03366 0.52682 0.24214 0.12900
Cl	Cl	0.02723 0.56162 0.06729 -0.27100
C 	C 	0.05517 0.50277 0.21063 0.16700
Cl	Cl	0.07607 0.50915 -0.00640 -0.21500
C 	C 	0.06063 0.47529 0.35446 -0.12300
C 	C 	0.04229 0.47102 0.52146 0.16900
Cl	Cl	0.04433 0.43445 0.69377 -0.24300
C 	C 	0.02171 0.49581 0.55316 0.12400
Cl	Cl	0.00181 0.49245 0.77190 -0.24000
C 	C 	0.97006 0.55477 0.45997 -0.04100
H 	H 	0.95856 0.62474 0.66117 0.08500
H 	H 	1.03281 0.64527 0.55755 0.10400
H 	H 	1.00344 0.64895 0.73211 0.10300
H 	H 	0.03296 0.61928 0.78388 0.12800
H 	H 	0.04083 0.57686 0.53969 0.10600
H 	H 	0.95813 0.53541 0.40655 0.09000
