data_crystal

_cell_length_a 18.21610
_cell_length_b 19.51190
_cell_length_c 15.15730
_cell_angle_alpha 92.72820
_cell_angle_beta  93.91900
_cell_angle_gamma 124.69570

_symmetry_space_group_name_	'P 1'
_symmetry_space_group_name_H-M	'P 1'

loop_
_symmetry_equiv_pos_as_xyz
  x,y,z

loop_
_atom_site_label
_atom_site_type_symbol
_atom_site_fract_x
_atom_site_fract_y
_atom_site_fract_z
_atom_site_charge
Sc	Sc	0.54448 0.30456 0.25390 2.33200
Sc	Sc	0.73917 0.42416 0.23671 2.33100
Sc	Sc	0.64629 0.24091 0.17297 2.33400
C 	C 	0.54494 0.15717 0.31696 0.43700
C 	C 	0.66134 0.46287 0.38246 0.42400
C 	C 	0.76405 0.31369 0.34780 0.40600
C 	C 	0.60916 0.45765 0.15388 0.41100
C 	C 	0.44597 0.15552 0.11668 0.39500
C 	C 	0.81858 0.37131 0.10229 0.41400
O 	O 	0.54574 0.22251 0.33390 -0.60300
O 	O 	0.73023 0.48775 0.34096 -0.54900
O 	O 	0.72713 0.25654 0.28300 -0.57400
O 	O 	0.54264 0.38622 0.17366 -0.50400
O 	O 	0.52107 0.16681 0.10082 -0.55100
O 	O 	0.82785 0.43126 0.15411 -0.61100
O 	O 	0.43961 0.20025 0.17757 -0.52900
O 	O 	0.69210 0.48618 0.17700 -0.52100
O 	O 	0.75188 0.29297 0.09850 -0.60400
O 	O 	0.58534 0.39157 0.36143 -0.56800
O 	O 	0.57337 0.14623 0.24700 -0.54700
O 	O 	0.76911 0.38123 0.34437 -0.61800
O 	O 	0.63225 0.32943 0.17651 -1.35900
Sc	Sc	0.45993 0.74890 0.75591 2.33100
Sc	Sc	0.29540 0.57324 0.74187 2.33100
Sc	Sc	0.28098 0.71178 0.68672 2.33200
C 	C 	0.39384 0.84954 0.83242 0.44600
C 	C 	0.43615 0.64244 0.90231 0.44000
C 	C 	0.17619 0.60686 0.83197 0.41100
C 	C 	0.46431 0.60283 0.68432 0.42000
C 	C 	0.45341 0.84908 0.61655 0.41900
C 	C 	0.15412 0.53851 0.59252 0.41700
O 	O 	0.45073 0.83067 0.83803 -0.63300
O 	O 	0.36106 0.58067 0.86159 -0.61500
O 	O 	0.19359 0.66394 0.78167 -0.58700
O 	O 	0.50744 0.68314 0.70385 -0.57800
O 	O 	0.36642 0.80612 0.61162 -0.59000
O 	O 	0.18763 0.50900 0.64382 -0.60800
O 	O 	0.50271 0.83767 0.67035 -0.60700
O 	O 	0.38176 0.54872 0.69736 -0.59700
O 	O 	0.18168 0.61622 0.59783 -0.60500
O 	O 	0.48266 0.71407 0.87301 -0.63500
O 	O 	0.32365 0.81038 0.77647 -0.63400
O 	O 	0.21028 0.56533 0.82639 -0.61100
O 	O 	0.35215 0.67104 0.68422 -1.41400
C 	C 	0.41039 0.92117 0.88996 0.04200
N 	N 	0.48753 0.97605 0.94279 -0.02600
N 	N 	0.48142 0.03660 0.97608 -0.03600
C 	C 	0.40086 0.01866 0.94335 0.12900
C 	C 	0.37061 0.07564 -0.03747 0.41600
F 	F 	0.43247 0.15342 0.93514 -0.36400
F 	F 	0.28884 0.04446 -0.08645 -0.36700
C 	C 	0.36029 0.08488 0.06237 0.34200
F 	F 	0.33170 0.01095 0.09888 -0.35500
F 	F 	0.29466 0.09946 0.06941 -0.31700
N 	N 	0.35500 0.94615 0.88927 -0.05400
N 	N 	0.26891 0.90452 0.84191 -0.13400
H 	H 	0.26966 0.94437 0.79763 0.16800
H 	H 	0.22350 0.89252 0.88779 0.18300
C 	C 	0.50871 0.56952 0.64052 0.04600
N 	N 	0.48205 0.48966 0.64340 -0.02000
N 	N 	0.51810 0.47331 0.57997 -0.00800
C 	C 	0.56627 0.54306 0.53817 0.12000
C 	C 	0.60208 0.54195 0.45135 0.44000
F 	F 	0.52809 0.48421 0.39128 -0.37400
F 	F 	0.64296 0.61898 0.41808 -0.35900
C 	C 	0.67093 0.51859 0.46168 0.33500
F 	F 	0.66056 0.47616 0.53573 -0.34300
F 	F 	0.75732 0.59241 0.47316 -0.32100
N 	N 	0.56192 0.60476 0.57570 -0.05700
N 	N 	0.59149 0.68272 0.54573 -0.14300
H 	H 	0.56110 0.67207 0.48073 0.16600
H 	H 	0.66126 0.71684 0.54530 0.17300
C 	C 	0.88672 0.39286 0.04169 0.05000
N 	N 	0.90554 0.33894 0.01223 -0.02100
N 	N 	-0.04220 0.37275 0.94807 -0.03800
C 	C 	0.96961 0.44667 0.93781 0.17700
C 	C 	0.01753 0.49894 0.86374 0.37800
F 	F 	1.03089 0.45024 0.80643 -0.38400
F 	F 	0.96206 0.51459 0.81582 -0.34800
C 	C 	0.10889 0.58293 0.89783 0.33600
F 	F 	0.14417 0.57550 0.97780 -0.37700
F 	F 	0.09673 0.64632 0.91195 -0.36200
N 	N 	0.92614 0.46113 -0.00356 -0.07500
N 	N 	0.91270 0.52522 1.00134 -0.12900
H 	H 	0.88274 0.52384 0.93941 0.18200
H 	H 	0.97548 0.58273 0.01496 0.17200
C 	C 	0.50151 0.91558 0.55828 0.04300
N 	N 	0.59170 0.97148 0.56994 -0.01900
N 	N 	0.61361 0.01893 0.50350 0.01000
C 	C 	0.53671 0.99136 0.45138 0.12400
C 	C 	0.53604 0.02985 0.36778 0.44500
F 	F 	0.62137 1.06932 0.34111 -0.34700
F 	F 	0.47581 0.96807 0.30075 -0.37600
C 	C 	0.51248 0.09400 0.38401 0.33400
F 	F 	0.55055 0.13751 0.46784 -0.32600
F 	F 	0.42033 0.05212 0.38081 -0.35900
N 	N 	0.46504 0.92661 0.48468 -0.05800
N 	N 	0.37434 0.87660 0.44822 -0.14500
H 	H 	0.37051 0.85112 0.38440 0.16500
H 	H 	0.35223 0.91545 0.44308 0.17500
C 	C 	0.47345 0.63145 0.98521 0.05200
N 	N 	0.54669 0.69559 0.03653 -0.02800
N 	N 	0.56900 0.66290 0.09864 -0.01500
C 	C 	0.50947 0.57890 1.08460 0.14600
C 	C 	0.51971 0.51983 0.13585 0.41300
F 	F 	0.54849 0.55343 0.22396 -0.34400
F 	F 	0.43764 0.44304 1.13252 -0.37000
C 	C 	0.58950 0.50869 0.09839 0.34100
F 	F 	0.66880 0.58678 0.09483 -0.34700
F 	F 	0.55770 0.46850 0.01276 -0.37000
N 	N 	0.44836 0.55762 1.01395 -0.05900
N 	N 	0.38009 0.47723 0.97249 -0.14100
H 	H 	0.33418 0.44539 1.01812 0.17100
H 	H 	0.40911 0.44549 0.95754 0.18100
C 	C 	0.08176 0.48141 0.52141 0.03500
N 	N 	0.06576 0.50741 0.44621 -0.03200
N 	N 	-0.00715 0.44111 0.39978 -0.06100
C 	C 	0.96517 0.37524 0.44707 0.14800
C 	C 	0.87724 0.29101 0.42292 0.43300
F 	F 	0.87469 0.26173 0.33674 -0.37100
F 	F 	0.87206 0.23405 0.47821 -0.32900
C 	C 	0.79669 0.29705 0.43268 0.33200
F 	F 	0.81904 0.35855 0.50024 -0.33800
F 	F 	0.72595 0.22193 0.45709 -0.29500
N 	N 	0.02030 0.39861 0.52323 -0.07000
N 	N 	1.00489 0.35154 0.59581 -0.10800
H 	H 	1.06333 0.35521 0.61490 0.15200
H 	H 	0.99197 0.37907 0.64749 0.18600
