data_crystal

_cell_length_a 12.76810
_cell_length_b 26.94060
_cell_length_c 32.71260
_cell_angle_alpha 103.93610
_cell_angle_beta  92.26880
_cell_angle_gamma 90.64250

_symmetry_space_group_name_	'P 1'
_symmetry_space_group_name_H-M	'P 1'

loop_
_symmetry_equiv_pos_as_xyz
  x,y,z

loop_
_atom_site_label
_atom_site_type_symbol
_atom_site_fract_x
_atom_site_fract_y
_atom_site_fract_z
_atom_site_charge
Mn	Mn	1.11847 0.37307 0.15491 1.20600
Mn	Mn	0.34372 0.31300 0.11644 1.27100
Mn	Mn	0.49421 0.10269 0.86097 1.20600
Mn	Mn	0.26885 0.16240 0.89987 1.27100
Mn	Mn	0.30735 0.23858 0.00769 1.27100
C 	C 	0.15038 0.29395 0.20782 0.11300
N 	N 	0.18605 0.31957 0.18050 -0.26300
N 	N 	0.27202 0.29626 0.16595 -0.19800
N 	N 	0.28969 0.25743 0.18330 -0.05800
N 	N 	0.21435 0.25483 0.20963 -0.09600
N 	N 	0.42803 0.21129 0.11880 -0.11100
N 	N 	0.38579 0.23977 0.09517 -0.21100
N 	N 	0.37010 0.21249 0.05611 -0.19900
N 	N 	0.40085 0.16499 0.05297 -0.11000
C 	C 	0.43684 0.16479 0.09213 0.14200
C 	C 	0.50195 0.36419 0.02791 0.14600
N 	N 	0.40959 0.33061 0.06634 -0.20000
N 	N 	0.47728 0.36873 0.06840 -0.11000
N 	N 	0.18912 0.27180 0.04476 -0.23900
N 	N 	0.20624 0.29910 0.08375 -0.19900
N 	N 	0.11970 0.32150 0.09855 -0.21000
N 	N 	1.04174 0.30929 0.07001 -0.13100
N 	N 	0.39408 0.30420 0.02682 -0.20000
N 	N 	0.45127 0.32402 0.00171 -0.11200
C 	C 	0.08516 0.27753 0.03665 0.14300
N 	N 	0.42099 0.15417 0.83471 -0.26600
N 	N 	0.33546 0.17777 0.84931 -0.19800
N 	N 	0.30024 0.20584 0.82386 -0.06100
N 	N 	0.36385 0.20083 0.79196 -0.09500
N 	N 	0.17463 0.26312 0.89741 -0.11400
N 	N 	0.22458 0.23584 0.92050 -0.21000
N 	N 	0.24589 0.26417 0.95889 -0.19700
N 	N 	0.21268 0.31109 0.96215 -0.10700
N 	N 	0.20318 0.14479 0.01677 -0.10700
N 	N 	0.22123 0.17283 -0.01038 -0.20500
N 	N 	0.21045 0.14408 0.95080 -0.19900
N 	N 	0.18889 0.09622 0.95169 -0.09800
N 	N 	0.42521 0.20527 0.97046 -0.23800
N 	N 	0.40784 0.17820 0.93138 -0.19900
N 	N 	0.49405 0.15539 0.91665 -0.21400
N 	N 	0.57184 0.16703 0.94532 -0.13000
Cl	Cl	0.28508 0.39376 0.14036 -0.78000
Cl	Cl	0.32939 0.08168 0.87626 -0.78300
C 	C 	0.43840 0.16813 0.79905 0.11900
C 	C 	0.16823 0.30996 0.92386 0.14300
C 	C 	0.18353 0.09736 -0.00703 0.14100
C 	C 	0.52885 0.19895 0.97866 0.16600
Mn	Mn	0.50949 0.89774 0.16697 1.20600
Mn	Mn	0.73696 0.83634 0.13274 1.26900
Mn	Mn	-0.09423 0.62192 0.88057 1.20800
Mn	Mn	0.67731 0.68080 0.91690 1.27100
Mn	Mn	0.70811 0.75752 0.02527 1.27000
C 	C 	0.55328 0.83299 0.23059 0.11900
N 	N 	0.57659 0.84665 0.19530 -0.26600
N 	N 	0.66367 0.82297 0.18281 -0.19800
N 	N 	0.69451 0.79546 0.20936 -0.06100
N 	N 	0.62636 0.80080 0.23973 -0.09500
N 	N 	0.80436 0.73308 0.14064 -0.11400
N 	N 	0.77949 0.76219 0.11443 -0.21100
N 	N 	0.76759 0.73367 0.07556 -0.20100
N 	N 	0.78579 0.68538 0.07509 -0.11000
C 	C 	0.81112 0.68547 0.11558 0.14000
C 	C 	0.83036 0.89851 0.03907 0.14300
N 	N 	0.80138 0.85295 0.08200 -0.20300
N 	N 	0.82205 0.90066 0.08039 -0.10300
N 	N 	0.58668 0.79165 0.06052 -0.23600
N 	N 	0.60128 0.82043 0.09918 -0.20000
N 	N 	0.51448 0.84400 0.11216 -0.21400
N 	N 	0.43879 0.83132 0.08278 -0.12800
N 	N 	0.79356 0.82335 0.04338 -0.20300
N 	N 	0.81311 0.85062 0.01583 -0.11200
C 	C 	0.48360 0.79802 0.05076 0.13800
N 	N 	0.83689 0.67377 0.85326 -0.26400
N 	N 	0.74972 0.69648 0.86707 -0.19800
N 	N 	0.72496 0.73099 0.84582 -0.05900
N 	N 	0.79710 0.73153 0.81775 -0.09800
N 	N 	0.59362 0.78170 0.91187 -0.11200
N 	N 	0.63301 0.75380 0.93663 -0.21100
N 	N 	0.64757 0.78199 0.97546 -0.19500
N 	N 	0.61822 0.82941 0.97736 -0.10600
N 	N 	0.56287 0.67309 0.03154 -0.10700
N 	N 	0.62239 0.69182 0.00651 -0.20400
N 	N 	0.60977 0.66422 0.96723 -0.19400
N 	N 	0.54149 0.62636 0.96530 -0.10200
N 	N 	0.82818 0.72345 0.98965 -0.23800
N 	N 	0.81355 0.69648 0.95036 -0.19900
N 	N 	0.90086 0.67403 0.93650 -0.21300
N 	N 	-0.02353 0.68542 0.96608 -0.12700
Cl	Cl	0.67717 0.91757 0.15407 -0.78400
Cl	Cl	0.73920 0.60035 0.89468 -0.77900
C 	C 	0.86638 0.69548 0.82239 0.11600
C 	C 	0.58531 0.82876 0.93763 0.14300
C 	C 	0.51362 0.63233 0.00560 0.12300
C 	C 	0.93110 0.71693 0.99903 0.16000
Mn	Mn	0.99435 0.61199 0.37454 1.20700
Mn	Mn	0.23739 0.64743 0.42188 1.27200
Mn	Mn	0.47059 0.87778 0.66352 1.20700
Mn	Mn	0.22339 0.84437 0.61843 1.27000
Mn	Mn	0.22780 0.74526 0.52042 1.27300
C 	C 	0.11989 0.63382 0.30328 0.10700
N 	N 	0.10741 0.64106 0.34493 -0.25900
N 	N 	0.19914 0.65759 0.36354 -0.19600
N 	N 	0.26615 0.66221 0.33480 -0.06600
N 	N 	0.21874 0.64777 0.29677 -0.09600
N 	N 	0.39531 0.72534 0.41250 -0.11800
N 	N 	0.32474 0.71232 0.43672 -0.21300
N 	N 	0.31624 0.74905 0.47125 -0.19900
N 	N 	0.37975 0.78784 0.47057 -0.10900
C 	C 	0.42755 0.77274 0.43374 0.14400
C 	C 	0.29522 0.60097 0.52974 0.14800
N 	N 	0.26945 0.63619 0.47958 -0.20100
N 	N 	0.28643 0.59103 0.48730 -0.10300
N 	N 	0.10167 0.72134 0.47874 -0.23900
N 	N 	0.10945 0.68534 0.44359 -0.20100
N 	N 	0.01685 0.67338 0.42437 -0.21100
N 	N 	0.94454 0.70243 0.44528 -0.13100
N 	N 	0.26676 0.67163 0.51527 -0.20000
N 	N 	0.28323 0.65099 0.54767 -0.10900
C 	C 	-0.00214 0.73260 0.47909 0.15600
N 	N 	0.36180 0.84523 0.69219 -0.26500
N 	N 	0.26644 0.83271 0.67572 -0.19900
N 	N 	0.22070 0.80178 0.69580 -0.05900
N 	N 	0.28690 0.79334 0.72565 -0.09700
N 	N 	0.06257 0.76807 0.62909 -0.11700
N 	N 	0.13342 0.77971 0.60431 -0.21100
N 	N 	0.13984 0.74215 0.57014 -0.19800
N 	N 	0.07447 0.70426 0.57177 -0.10800
N 	N 	0.17403 0.83896 0.49257 -0.10900
N 	N 	0.18830 0.81910 0.52545 -0.19900
N 	N 	0.18862 0.85554 0.56069 -0.20100
N 	N 	0.17631 0.90063 0.55196 -0.10300
N 	N 	0.35524 0.76865 0.56127 -0.23800
N 	N 	0.35029 0.80608 0.59552 -0.19900
N 	N 	0.44425 0.81770 0.61363 -0.21300
N 	N 	0.51451 0.78711 0.59302 -0.12800
Cl	Cl	0.13008 0.57686 0.40442 -0.77700
Cl	Cl	0.33279 0.91409 0.63562 -0.78700
C 	C 	0.37499 0.82033 0.72276 0.11500
C 	C 	0.02761 0.72076 0.60880 0.14600
C 	C 	0.16615 0.88945 0.50944 0.14800
C 	C 	0.45875 0.75638 0.56032 0.15100
Mn	Mn	0.52745 0.13256 0.36372 1.20700
Mn	Mn	0.77334 0.16465 0.41094 1.27000
Mn	Mn	0.00338 0.39149 0.65456 1.21000
Mn	Mn	0.75703 0.35625 0.60989 1.27200
Mn	Mn	0.76443 0.25975 0.51080 1.27400
C 	C 	0.62912 0.19179 0.30623 0.11900
N 	N 	0.63729 0.16767 0.33748 -0.26500
N 	N 	0.73264 0.17855 0.35441 -0.20000
N 	N 	0.78307 0.20776 0.33413 -0.05900
N 	N 	0.72004 0.21674 0.30359 -0.09900
N 	N 	0.92730 0.24590 0.40263 -0.11400
N 	N 	0.86113 0.23004 0.42720 -0.21100
N 	N 	0.85242 0.26557 0.46242 -0.20200
N 	N 	0.91204 0.30587 0.46219 -0.10900
C 	C 	0.95802 0.29323 0.42487 0.14400
C 	C 	0.82770 0.11419 0.51775 0.14500
N 	N 	0.80632 0.15087 0.46807 -0.20100
N 	N 	0.81915 0.10504 0.47527 -0.10300
N 	N 	0.63806 0.23704 0.46952 -0.23800
N 	N 	0.64479 0.20146 0.43418 -0.19900
N 	N 	0.55138 0.19019 0.41548 -0.21400
N 	N 	0.47991 0.21931 0.43677 -0.12800
N 	N 	0.80456 0.18583 0.50410 -0.20000
N 	N 	0.81822 0.16424 0.53612 -0.10900
C 	C 	0.53440 0.24870 0.47055 0.15100
N 	N 	0.89450 0.36005 0.68406 -0.26300
N 	N 	0.80011 0.34562 0.66737 -0.19700
N 	N 	0.73824 0.33844 0.69702 -0.06500
N 	N 	0.79276 0.34819 0.73370 -0.09800
N 	N 	0.59758 0.27830 0.61851 -0.11900
N 	N 	0.67006 0.29090 0.59492 -0.21200
N 	N 	0.67677 0.25477 0.55981 -0.20000
N 	N 	0.61020 0.21680 0.55953 -0.10900
N 	N 	0.70415 0.35422 0.48502 -0.10900
N 	N 	0.72383 0.33331 0.51706 -0.19900
N 	N 	0.72093 0.36824 0.55295 -0.20200
N 	N 	0.70112 0.41343 0.54582 -0.10300
N 	N 	0.89083 0.28252 0.55189 -0.23900
N 	N 	0.88470 0.31883 0.58682 -0.20100
N 	N 	0.97847 0.33102 0.60485 -0.21500
N 	N 	0.04987 0.30206 0.58330 -0.12600
Cl	Cl	0.66474 0.09477 0.39101 -0.78400
Cl	Cl	0.86405 0.42691 0.62693 -0.78000
C 	C 	0.89037 0.36162 0.72513 0.11500
C 	C 	0.56232 0.23176 0.59635 0.14300
C 	C 	0.69019 0.40392 0.50346 0.14800
C 	C 	0.99476 0.27151 0.55026 0.14700
C 	C 	0.58765 0.21822 0.02023 -0.20500
C 	C 	0.70097 0.22859 0.01416 0.08100
C 	C 	0.77874 0.19734 0.02548 -0.08100
C 	C 	0.88395 0.20630 0.01906 -0.04300
C 	C 	0.91277 0.24691 0.00162 0.01900
C 	C 	1.02610 0.25710 0.99531 -0.15600
C 	C 	0.83491 0.27822 0.99034 -0.01600
C 	C 	0.72974 0.26913 -0.00334 -0.10800
H 	H 	0.55339 0.25348 0.03891 0.06100
H 	H 	0.58250 0.18848 0.03827 0.07200
H 	H 	0.75797 0.16581 0.03903 0.03900
H 	H 	0.94296 0.18167 0.02773 0.03600
H 	H 	1.03079 0.28618 0.97668 0.06400
H 	H 	1.06084 0.22154 0.97721 0.05100
H 	H 	0.85542 0.30988 0.97690 0.02500
H 	H 	0.67063 0.29347 0.98778 0.06100
C 	C 	-0.01172 0.73731 0.04077 -0.19700
C 	C 	0.10161 0.74847 0.03437 0.07600
C 	C 	0.18117 0.71783 0.04533 -0.07900
C 	C 	0.28541 0.72641 0.03696 -0.04400
C 	C 	0.31173 0.76543 0.01726 0.02100
C 	C 	0.42475 0.77567 1.00962 -0.15200
C 	C 	0.23227 0.79634 1.00663 -0.02000
C 	C 	0.12811 0.78806 0.01529 -0.10100
H 	H 	-0.04791 0.77262 0.05861 0.05600
H 	H 	-0.01730 0.70798 0.05936 0.07100
H 	H 	0.16259 0.68701 0.06002 0.03900
H 	H 	0.34580 0.70292 0.04608 0.03500
H 	H 	0.42851 0.80375 0.98987 0.06400
H 	H 	0.45981 0.73987 0.99213 0.05500
H 	H 	0.25101 0.82719 0.99200 0.02800
H 	H 	0.06787 0.81221 1.00680 0.06000
C 	C 	0.50955 0.71487 0.52848 -0.18100
C 	C 	0.62242 0.72926 0.52321 0.05800
C 	C 	0.64632 0.77418 0.51045 -0.06200
C 	C 	0.75036 0.78862 0.50675 -0.06600
C 	C 	0.83276 0.75834 0.51575 0.05900
C 	C 	0.94539 0.77332 0.51102 -0.18600
C 	C 	0.80903 0.71333 0.52841 -0.06300
C 	C 	0.70487 0.69882 0.53199 -0.06400
H 	H 	0.50547 0.67903 0.53950 0.06500
H 	H 	0.46733 0.70733 0.49756 0.05800
H 	H 	0.58432 0.79868 0.50426 0.04200
H 	H 	0.76652 0.82357 0.49705 0.03400
H 	H 	0.98677 0.78062 0.54207 0.05800
H 	H 	0.94935 0.80954 0.50055 0.06500
H 	H 	0.87133 0.68911 0.53499 0.04200
H 	H 	0.68881 0.66389 0.54170 0.03500
C 	C 	0.04605 0.23137 0.51732 -0.18000
C 	C 	0.15921 0.24587 0.51325 0.05800
C 	C 	0.18442 0.29189 0.50241 -0.06100
C 	C 	0.28890 0.30625 0.49964 -0.06500
C 	C 	0.37012 0.27460 0.50728 0.05900
C 	C 	0.48312 0.28920 0.50306 -0.18200
C 	C 	0.34491 0.22844 0.51789 -0.06200
C 	C 	0.24042 0.21416 0.52083 -0.06500
H 	H 	0.04002 0.19426 0.52634 0.06500
H 	H 	0.00591 0.22600 0.48615 0.06000
H 	H 	0.12308 0.31713 0.49685 0.04300
H 	H 	0.30637 0.34210 0.49158 0.03500
H 	H 	0.52404 0.29555 0.53420 0.05900
H 	H 	0.48817 0.32576 0.49315 0.06600
H 	H 	0.40619 0.20295 0.52302 0.04200
H 	H 	0.22302 0.17830 0.52885 0.03500
C 	C 	0.43215 0.60045 1.01953 -0.13200
C 	C 	0.47194 0.54791 0.01807 0.01900
C 	C 	0.46609 0.51008 0.98012 -0.00900
C 	C 	0.50127 0.46090 -0.02106 -0.09700
C 	C 	0.54325 0.44899 0.01566 0.07500
C 	C 	0.58297 0.39637 0.01403 -0.17200
C 	C 	0.54954 0.48691 0.05360 -0.06800
C 	C 	0.51437 0.53613 0.05477 -0.03700
H 	H 	0.41115 0.61924 1.05222 0.06100
H 	H 	0.35971 0.59818 0.99914 0.05200
H 	H 	0.43379 0.51866 0.95153 0.02900
H 	H 	0.49578 0.43212 0.94939 0.05700
H 	H 	0.65561 0.39853 0.03427 0.05600
H 	H 	0.60355 0.37766 -0.01872 0.05900
H 	H 	0.58227 0.47845 0.08215 0.04200
H 	H 	0.52028 0.56505 0.08427 0.03500
C 	C 	0.66837 0.44397 0.47995 -0.16600
C 	C 	0.57679 0.47463 0.49829 0.05500
C 	C 	0.47671 0.45149 0.49460 -0.05700
C 	C 	0.39225 0.47896 0.51360 -0.05800
C 	C 	0.40677 0.53008 0.53624 0.05500
C 	C 	0.31488 0.56119 0.55379 -0.16600
C 	C 	0.50692 0.55317 0.53996 -0.05700
C 	C 	0.59132 0.52571 0.52094 -0.05800
H 	H 	0.73981 0.46866 0.48251 0.06000
H 	H 	0.65080 0.42601 0.44603 0.05900
H 	H 	0.46439 0.41216 0.47699 0.03700
H 	H 	0.31545 0.46055 0.51005 0.03600
H 	H 	0.33103 0.57951 0.58776 0.06000
H 	H 	0.24300 0.53675 0.55093 0.06100
H 	H 	0.51913 0.59268 0.55709 0.03700
H 	H 	0.66791 0.54425 0.52407 0.03600
C 	C 	0.20137 0.05137 0.01016 -0.17200
C 	C 	0.10044 0.02407 0.01290 0.04800
C 	C 	0.05319 0.03019 0.05176 -0.06100
C 	C 	-0.03986 1.00373 0.05435 -0.05200
C 	C 	0.91362 0.97093 0.01815 0.03700
C 	C 	0.81270 0.94368 0.02080 -0.15800
C 	C 	0.96068 0.96490 0.97930 -0.04900
C 	C 	0.05364 -0.00863 0.97669 -0.05000
H 	H 	0.25541 0.02515 0.98989 0.07200
H 	H 	0.24212 0.06352 0.04181 0.06300
H 	H 	0.08784 0.05568 0.07994 0.03800
H 	H 	-0.07636 1.00914 0.08440 0.04200
H 	H 	0.77336 0.93053 -0.01103 0.05700
H 	H 	0.75778 0.97030 0.04025 0.06200
H 	H 	0.92542 0.93974 0.95107 0.03500
H 	H 	0.08931 -0.01371 0.94651 0.04200
C 	C 	0.83419 0.07359 0.54190 -0.16300
C 	C 	0.91781 0.03610 0.52581 0.05000
C 	C 	0.02323 0.05229 0.53004 -0.05100
C 	C 	0.10169 1.01742 0.51617 -0.06300
C 	C 	0.07580 0.96585 0.49804 0.06200
C 	C 	0.16047 0.92831 0.48366 -0.16800
C 	C 	0.97023 0.94969 0.49329 -0.06500
C 	C 	0.89163 -0.01538 0.50713 -0.05400
H 	H 	0.85206 0.09147 0.57584 0.06100
H 	H 	0.75650 0.05388 0.53934 0.06200
H 	H 	0.04443 0.09189 0.54429 0.03700
H 	H 	0.18263 1.03066 0.51987 0.03800
H 	H 	0.23803 0.94819 0.48633 0.06300
H 	H 	0.14473 0.90888 0.44992 0.06300
H 	H 	0.94910 0.91004 0.47905 0.03800
H 	H 	0.81059 -0.02856 0.50336 0.03500
C 	C 	0.52806 0.19933 0.28416 -0.16800
C 	C 	0.52607 0.17208 0.23830 0.04300
C 	C 	0.59812 0.18577 0.21135 -0.05400
C 	C 	0.58866 0.16455 0.16803 -0.05600
C 	C 	0.50516 0.13062 0.15093 0.05400
C 	C 	0.47998 0.11841 0.10427 -0.16200
C 	C 	0.43651 0.11481 0.17797 -0.06200
C 	C 	0.44718 0.13529 0.22142 -0.06200
H 	H 	0.46215 0.18570 0.30018 -0.00700
H 	H 	0.51737 0.24094 0.28717 0.06000
H 	H 	0.65925 0.21425 0.22357 0.04100
H 	H 	0.64198 0.17721 0.14748 0.03600
H 	H 	0.42080 0.08661 0.09507 0.05400
H 	H 	0.55171 0.10601 0.08672 0.05500
H 	H 	0.37141 0.08879 0.16533 0.02400
H 	H 	0.39102 0.12407 0.24164 0.00700
C 	C 	0.46401 0.85463 0.25734 -0.16900
C 	C 	0.47142 0.84274 0.30002 0.05300
C 	C 	0.55581 0.86243 0.32823 -0.05400
C 	C 	0.56591 0.84957 0.36696 -0.06100
C 	C 	0.49108 0.81780 0.37882 0.05600
C 	C 	0.51222 0.80338 0.42022 -0.16500
C 	C 	0.40351 0.80002 0.35125 -0.05600
C 	C 	0.39462 0.81202 0.31198 -0.05600
H 	H 	0.38920 0.83956 0.24005 0.02600
H 	H 	0.46517 0.89684 0.26172 0.00100
H 	H 	0.61519 0.88682 0.31983 0.03600
H 	H 	0.63357 0.86376 0.38765 0.03700
H 	H 	0.52639 0.83912 0.44527 0.06200
H 	H 	0.58540 0.78120 0.41792 0.06000
H 	H 	0.34275 0.77608 0.35906 0.05300
H 	H 	0.32847 0.79685 0.29067 0.03700
C 	C 	0.48019 0.81223 0.74176 -0.16100
C 	C 	0.49528 0.83366 0.78874 0.03600
C 	C 	0.59689 0.83351 0.80675 -0.06000
C 	C 	0.61534 0.84949 0.85027 -0.05800
C 	C 	0.53179 0.86445 0.87679 0.05100
C 	C 	0.55044 0.87554 0.92389 -0.16200
C 	C 	0.43070 0.86655 0.85897 -0.06400
C 	C 	0.41247 0.85150 0.81526 -0.05900
H 	H 	0.49406 0.77046 0.73461 0.06000
H 	H 	0.54081 0.82979 0.72586 -0.02100
H 	H 	0.66199 0.82010 0.78705 0.03400
H 	H 	0.69422 0.84829 0.86350 0.04400
H 	H 	0.47824 0.88955 0.94045 0.05800
H 	H 	0.61190 0.90612 0.93365 0.05600
H 	H 	0.36550 0.87874 0.87892 0.03700
H 	H 	0.33327 0.85269 0.80271 0.04200
C 	C 	0.52394 0.14646 0.77032 -0.17000
C 	C 	0.51388 0.16065 0.72866 0.05400
C 	C 	0.42651 0.14358 0.70131 -0.05500
C 	C 	0.41597 0.15733 0.66291 -0.06000
C 	C 	0.49340 0.18750 0.65064 0.05500
C 	C 	0.47486 0.20200 0.60909 -0.16400
C 	C 	0.58320 0.20286 0.67750 -0.05600
C 	C 	0.59252 0.18998 0.71632 -0.05800
H 	H 	0.60070 0.15971 0.78679 0.02300
H 	H 	0.52040 0.10407 0.76446 0.00200
H 	H 	0.36598 0.12000 0.70995 0.03700
H 	H 	0.34688 0.14451 0.64260 0.03800
H 	H 	0.40290 0.22507 0.61075 0.06000
H 	H 	0.46029 0.16635 0.58395 0.06200
H 	H 	0.64640 0.22500 0.66918 0.05300
H 	H 	0.66136 0.20287 0.73669 0.03800
C 	C 	0.05612 0.59408 0.27157 -0.13500
C 	C 	0.99926 0.60912 0.23496 0.01200
C 	C 	0.93145 0.57181 0.20978 -0.05000
C 	C 	0.87231 0.58189 0.17619 -0.07500
C 	C 	0.87976 0.62948 0.16605 0.06000
C 	C 	0.80588 0.63688 0.13055 -0.16400
C 	C 	0.95093 0.66676 0.19006 -0.07800
C 	C 	0.01005 0.65670 0.22451 -0.03400
H 	H 	0.10824 0.56186 0.25848 0.04200
H 	H 	0.99625 0.57844 0.28918 -0.03400
H 	H 	0.92291 0.53460 0.21664 0.00500
H 	H 	0.81893 0.55230 0.15818 0.03000
H 	H 	0.72447 0.63297 0.14038 0.06600
H 	H 	0.81664 0.60450 0.10272 0.06100
H 	H 	-0.03974 0.70358 0.18277 0.05000
H 	H 	0.06346 0.68592 0.24276 0.03500
C 	C 	1.02963 0.32930 0.41009 -0.16800
C 	C 	1.03461 0.31870 0.36277 0.06400
C 	C 	1.13194 0.31392 0.34386 -0.08000
C 	C 	0.13784 0.30886 0.30042 -0.03700
C 	C 	1.04583 0.30743 0.27481 0.02500
C 	C 	0.04550 0.30192 0.22749 -0.14600
C 	C 	0.94865 0.31190 0.29395 -0.04800
C 	C 	0.94304 0.31802 0.33746 -0.06300
H 	H 	1.00089 0.36878 0.42161 0.06400
H 	H 	1.10874 0.32815 0.42512 0.06000
H 	H 	0.20377 0.31552 0.36292 0.04100
H 	H 	0.21464 0.30701 0.28746 0.03700
H 	H 	0.99394 0.26868 0.21189 0.04600
H 	H 	0.01003 0.33655 0.22039 -0.01300
H 	H 	0.87677 0.31134 0.27509 0.03000
H 	H 	0.86722 0.32264 0.35147 0.04800
C 	C 	0.10873 0.35433 0.91529 -0.16400
C 	C 	0.06785 0.34838 0.87044 0.05400
C 	C 	-0.03885 0.35604 0.86217 -0.06100
C 	C 	0.92724 0.36533 0.82359 -0.05700
C 	C 	-0.00071 0.36662 0.79256 0.04400
C 	C 	0.97003 0.39101 0.75690 -0.15900
C 	C 	0.10405 0.35391 0.79931 -0.05800
C 	C 	0.13821 0.34522 0.83810 -0.05900
H 	H 	0.04322 0.36171 0.93721 0.05900
H 	H 	0.16117 0.38878 0.92373 0.06100
H 	H 	0.90548 0.35897 0.88672 0.03500
H 	H 	0.84651 0.37556 0.81932 0.04200
H 	H 	0.04104 0.39726 0.74002 -0.02400
H 	H 	0.93862 0.42953 0.77031 0.03300
H 	H 	0.16123 0.35464 0.77587 0.02300
H 	H 	0.22086 0.33973 0.84397 0.04600
C 	C 	-0.06040 0.69227 0.62301 -0.16500
C 	C 	-0.04765 0.69108 0.66893 0.05900
C 	C 	-0.02725 0.64501 0.68045 -0.06000
C 	C 	-0.02287 0.64335 0.72299 -0.05500
C 	C 	-0.03958 0.68767 0.75479 0.04900
C 	C 	-0.03086 0.68659 0.80092 -0.16200
C 	C 	0.94142 0.73384 0.74320 -0.05100
C 	C 	0.93661 0.73545 0.70072 -0.05600
H 	H 	-0.13533 0.71106 0.61811 0.06000
H 	H 	-0.06606 0.65274 0.60254 0.06400
H 	H 	-0.01538 0.61023 0.65650 0.03700
H 	H 	-0.00621 0.60742 0.73101 0.01800
H 	H 	1.02616 0.71690 0.81749 0.04700
H 	H 	0.00059 0.64953 0.80456 -0.00600
H 	H 	0.93056 0.76874 0.76712 0.04100
H 	H 	0.91941 0.77126 0.69260 0.03400
