data_crystal

_cell_length_a 12.01890
_cell_length_b 29.27800
_cell_length_c 30.45360
_cell_angle_alpha 125.25430
_cell_angle_beta  90.63810
_cell_angle_gamma 89.79050

_symmetry_space_group_name_	'P 1'
_symmetry_space_group_name_H-M	'P 1'

loop_
_symmetry_equiv_pos_as_xyz
  x,y,z

loop_
_atom_site_label
_atom_site_type_symbol
_atom_site_fract_x
_atom_site_fract_y
_atom_site_fract_z
_atom_site_charge
Mn	Mn	1.10187 0.42852 0.24361 1.21900
Mn	Mn	0.33070 0.36529 0.16288 1.29700
Mn	Mn	0.40489 0.06058 0.82043 1.18700
Mn	Mn	0.18429 0.15042 0.88423 1.28600
Mn	Mn	0.25610 0.26224 0.02258 1.27700
C 	C 	0.20276 0.35929 0.28248 0.22900
N 	N 	0.20494 0.37946 0.25230 -0.24500
N 	N 	0.29576 0.35838 0.22344 -0.17600
N 	N 	0.35034 0.32824 0.23611 -0.01500
N 	N 	0.29382 0.32778 0.27288 -0.04000
N 	N 	0.44974 0.26579 0.13731 -0.08100
N 	N 	0.38798 0.28758 0.11800 -0.20200
N 	N 	0.34867 0.24817 0.07003 -0.19000
N 	N 	0.38247 0.19851 0.05665 -0.08200
C 	C 	0.44606 0.21049 0.09904 0.24000
C 	C 	0.41863 0.40410 0.06052 0.24800
N 	N 	0.36448 0.37255 0.10315 -0.18900
N 	N 	0.41492 0.41632 0.11029 -0.08100
N 	N 	0.14382 0.30793 0.08319 -0.23200
N 	N 	0.17477 0.33961 0.13431 -0.18400
N 	N 	0.08773 0.36533 0.16519 -0.20400
N 	N 	0.99707 0.35260 0.13565 -0.08300
N 	N 	0.34062 0.33498 0.05169 -0.19100
N 	N 	0.37206 0.35386 0.02347 -0.09500
C 	C 	0.03201 0.31631 0.08465 0.22000
N 	N 	0.33622 0.10319 0.79394 -0.26400
N 	N 	0.25548 0.13977 0.81882 -0.18000
N 	N 	0.24388 0.16901 0.79818 -0.02300
N 	N 	0.31818 0.15112 0.75945 -0.04200
N 	N 	0.12695 0.25522 0.89347 -0.08700
N 	N 	0.15235 0.23318 0.91998 -0.19300
N 	N 	0.16935 0.27349 0.97157 -0.18400
N 	N 	0.15676 0.32286 0.97990 -0.07400
N 	N 	0.14421 0.17456 0.02774 -0.06600
N 	N 	0.16722 0.19201 -0.00279 -0.18200
N 	N 	0.12635 0.15647 0.94836 -0.17800
N 	N 	0.07620 0.11449 0.94494 -0.07100
N 	N 	0.36822 0.21539 0.96217 -0.23600
N 	N 	0.33601 0.16819 0.91743 -0.19600
N 	N 	0.42163 0.13569 0.89168 -0.20300
N 	N 	0.51484 0.16143 0.91690 -0.09300
Cl	Cl	0.25171 0.44975 0.21230 -0.86100
Cl	Cl	0.22884 0.05927 0.84588 -0.74800
C 	C 	0.37482 0.10988 0.75725 0.14100
C 	C 	0.12881 0.31095 0.93129 0.19200
C 	C 	0.08754 0.12640 -0.00542 0.21500
C 	C 	0.48119 0.21142 0.96059 0.18100
Mn	Mn	0.64141 0.95765 0.25124 1.16100
Mn	Mn	0.84688 0.87942 0.16016 1.29100
Mn	Mn	-0.16858 0.58077 0.80464 1.21600
Mn	Mn	0.62348 0.65513 0.89664 1.28600
Mn	Mn	0.73487 0.76809 0.02846 1.27500
C 	C 	0.77160 0.91216 0.30554 0.18100
N 	N 	0.75256 0.91416 0.26325 -0.25100
N 	N 	0.83275 0.88487 0.22915 -0.17900
N 	N 	0.90103 0.86589 0.24952 -0.01200
N 	N 	0.86414 0.88197 0.29742 -0.02500
N 	N 	0.95644 0.78016 0.14081 -0.07500
N 	N 	0.89500 0.79965 0.11899 -0.20000
N 	N 	0.84880 0.75810 0.07361 -0.18800
N 	N 	0.87718 0.70980 0.06529 -0.07600
C 	C 	0.94542 0.72435 0.10733 0.23500
C 	C 	0.89661 0.89987 0.04184 0.24200
N 	N 	0.85866 0.87699 0.09369 -0.19000
N 	N 	0.91021 0.91591 0.09272 -0.06800
N 	N 	0.63968 0.81751 0.09620 -0.23400
N 	N 	0.68533 0.85619 0.14331 -0.18800
N 	N 	0.60758 0.88623 0.17890 -0.20800
N 	N 	0.50803 0.86881 0.15693 -0.10600
N 	N 	0.81633 0.83821 0.04602 -0.18800
N 	N 	0.83818 0.85138 0.01186 -0.06800
C 	C 	0.52768 0.82542 0.10557 0.24700
N 	N 	0.71873 0.62535 0.79453 -0.25400
N 	N 	0.63541 0.65084 0.82803 -0.18000
N 	N 	0.57111 0.67563 0.81230 -0.02300
N 	N 	0.61408 0.66820 0.76875 -0.05200
N 	N 	0.51113 0.75442 0.91685 -0.09500
N 	N 	0.57240 0.73511 0.93887 -0.19400
N 	N 	0.62128 0.77687 0.98330 -0.17800
N 	N 	0.59522 0.82479 0.99052 -0.06400
N 	N 	0.64331 0.68504 0.04562 -0.06300
N 	N 	0.65526 0.69841 0.01142 -0.18400
N 	N 	0.61531 0.65815 0.96364 -0.18100
N 	N 	0.57396 0.61739 0.96522 -0.07500
N 	N 	0.82818 0.71872 0.96086 -0.23400
N 	N 	0.78395 0.67949 0.91367 -0.18300
N 	N 	0.86294 0.65067 0.87847 -0.18500
N 	N 	-0.03835 0.66994 0.90090 -0.12400
Cl	Cl	0.78199 0.96779 0.20721 -0.76400
Cl	Cl	0.69249 0.56674 0.84722 -0.71900
C 	C 	0.70642 0.63701 0.75798 0.26800
C 	C 	0.52432 0.81008 0.94948 0.26200
C 	C 	0.59234 0.63464 0.01623 0.21600
C 	C 	0.93973 0.71307 0.95220 0.21200
Mn	Mn	1.16288 0.54467 0.28831 1.23100
Mn	Mn	0.37476 0.62924 0.37299 1.28900
Mn	Mn	0.39889 0.94298 0.71869 1.18500
Mn	Mn	0.18843 0.84862 0.64345 1.28400
Mn	Mn	0.27985 0.73723 0.50818 1.27700
C 	C 	0.24972 0.60000 0.23406 0.17300
N 	N 	0.25255 0.59275 0.27382 -0.24700
N 	N 	0.33532 0.62424 0.30563 -0.18100
N 	N 	0.38418 0.64947 0.28628 -0.01800
N 	N 	0.33195 0.63516 0.24139 -0.04100
N 	N 	0.47217 0.73051 0.39212 -0.08100
N 	N 	0.41284 0.70962 0.41265 -0.20200
N 	N 	0.37307 0.74979 0.45987 -0.18500
N 	N 	0.40322 0.79906 0.47115 -0.07800
C 	C 	0.46560 0.78609 0.42864 0.24400
C 	C 	0.45163 0.60314 0.48554 0.24700
N 	N 	0.41117 0.63224 0.43862 -0.19000
N 	N 	0.45905 0.59021 0.43567 -0.06600
N 	N 	0.17555 0.68362 0.44391 -0.22500
N 	N 	0.21471 0.64694 0.39517 -0.18400
N 	N 	0.13441 0.61374 0.36233 -0.20700
N 	N 	1.03947 0.62659 0.38781 -0.08100
N 	N 	0.37571 0.66982 0.48779 -0.18800
N 	N 	0.39947 0.65272 0.51892 -0.08200
C 	C 	0.06488 0.67027 0.43841 0.22600
N 	N 	0.32700 0.89659 0.74007 -0.26200
N 	N 	0.24748 0.85963 0.71182 -0.18000
N 	N 	0.23085 0.82924 0.73066 -0.02200
N 	N 	0.30130 0.84603 0.77141 -0.05400
N 	N 	0.11095 0.74455 0.62978 -0.08600
N 	N 	0.15957 0.76605 0.60684 -0.19800
N 	N 	0.18941 0.72580 0.55732 -0.18900
N 	N 	0.16342 0.67644 0.54678 -0.08100
N 	N 	0.16901 0.82154 0.49665 -0.04900
N 	N 	0.18350 0.80402 0.52775 -0.17600
N 	N 	0.14210 0.84101 0.57599 -0.18300
N 	N 	0.09947 0.88363 0.57763 -0.06200
N 	N 	0.38319 0.79113 0.57179 -0.23500
N 	N 	0.34486 0.83434 0.61780 -0.19400
N 	N 	0.42521 0.87031 0.64661 -0.20400
N 	N 	0.52051 0.85162 0.62147 -0.10500
Cl	Cl	0.32048 0.53953 0.32854 -0.67900
Cl	Cl	0.22826 0.94101 0.68504 -0.71300
C 	C 	0.36057 0.88821 0.77679 0.13400
C 	C 	0.11382 0.68881 0.59201 0.18500
C 	C 	0.11543 0.87085 0.52809 0.27100
C 	C 	0.49398 0.80194 0.57512 0.17000
Mn	Mn	0.60939 0.05529 0.29859 1.15400
Mn	Mn	0.81081 0.14319 0.38968 1.28900
Mn	Mn	-0.20082 0.42104 0.75223 1.25300
Mn	Mn	0.59190 0.34235 0.65907 1.28100
Mn	Mn	0.70124 0.24213 0.52422 1.27800
C 	C 	0.71455 0.10569 0.24457 0.17700
N 	N 	0.69734 0.10752 0.28903 -0.25500
N 	N 	0.77534 0.14106 0.32353 -0.17800
N 	N 	0.83991 0.15877 0.30134 -0.00400
N 	N 	0.80311 0.13771 0.25186 -0.02700
N 	N 	0.88769 0.25362 0.41761 -0.07100
N 	N 	0.83726 0.22650 0.43458 -0.19800
N 	N 	0.79945 0.26222 0.48368 -0.19200
N 	N 	0.82393 0.31405 0.50052 -0.09700
C 	C 	0.87872 0.30800 0.45903 0.17500
C 	C 	0.88131 0.10957 0.49888 0.18400
N 	N 	0.84256 0.14105 0.45338 -0.19100
N 	N 	0.89447 0.09927 0.44999 -0.08700
N 	N 	0.60427 0.19178 0.45588 -0.23300
N 	N 	0.64892 0.15536 0.40841 -0.19100
N 	N 	0.57208 0.12190 0.37317 -0.20700
N 	N 	0.47325 0.13516 0.39549 -0.10600
N 	N 	0.79859 0.17492 0.50142 -0.19100
N 	N 	0.82140 0.15653 0.53134 -0.07500
C 	C 	0.49327 0.17905 0.44686 0.24500
N 	N 	0.70106 0.36949 0.75902 -0.23700
N 	N 	0.62040 0.34034 0.72387 -0.18600
N 	N 	0.56615 0.31101 0.73727 -0.02900
N 	N 	0.61280 0.31968 0.78116 -0.05500
N 	N 	0.50404 0.23439 0.62984 -0.09000
N 	N 	0.55538 0.26014 0.61189 -0.19900
N 	N 	0.60313 0.22323 0.56544 -0.18800
N 	N 	0.58700 0.17211 0.55245 -0.07000
N 	N 	0.58125 0.32642 0.51586 -0.07500
N 	N 	0.60505 0.30954 0.54680 -0.18500
N 	N 	0.56672 0.34588 0.59576 -0.19100
N 	N 	0.51543 0.38734 0.59835 -0.08600
N 	N 	0.79722 0.29142 0.59218 -0.23800
N 	N 	0.75375 0.32624 0.64029 -0.19200
N 	N 	0.83269 0.35557 0.67625 -0.19000
N 	N 	-0.06885 0.34064 0.65345 -0.13000
Cl	Cl	0.76851 0.05114 0.33826 -0.81100
Cl	Cl	0.64653 0.43336 0.71393 -0.71400
C 	C 	0.69736 0.35608 0.79465 0.24800
C 	C 	0.52392 0.17985 0.59257 0.26300
C 	C 	0.52483 0.37459 0.54840 0.19700
C 	C 	0.90908 0.29997 0.60098 0.19800
C 	C 	0.56357 0.25633 -0.00348 -0.18000
C 	C 	0.63796 0.26876 -0.03704 0.03500
C 	C 	0.75673 0.27790 -0.01767 -0.08400
C 	C 	0.80817 0.33055 0.00839 0.25600
F 	F 	0.75924 0.37275 0.00910 -0.34900
C 	C 	0.90845 0.34076 0.03631 0.27900
F 	F 	0.95163 0.39339 0.06553 -0.38400
C 	C 	0.95668 0.29887 0.03944 -0.17600
C 	C 	0.90770 0.24567 0.01083 0.26900
F 	F 	0.93789 0.20801 0.02067 -0.40000
C 	C 	0.81308 0.23420 -0.02059 0.22300
F 	F 	0.76745 0.18218 -0.04777 -0.40100
H 	H 	0.61295 0.24039 1.01601 0.13200
H 	H 	0.52495 0.29518 0.02966 0.08300
H 	H 	0.63858 0.23352 -0.08044 0.07500
H 	H 	0.60429 0.30528 -0.03511 0.08500
C 	C 	0.03019 0.74531 0.99348 -0.21100
C 	C 	0.13759 0.74547 0.96653 0.04200
C 	C 	0.23708 0.76620 1.00399 -0.08600
C 	C 	0.29335 0.73058 0.01366 0.20500
F 	F 	0.25384 0.67826 -0.00745 -0.39200
C 	C 	0.38868 0.74943 0.04661 0.28000
F 	F 	0.42835 0.71879 0.06360 -0.40200
C 	C 	0.43590 0.80169 0.06562 -0.21100
C 	C 	0.37706 0.83776 1.05731 0.29600
F 	F 	0.41446 0.89057 1.07937 -0.38300
C 	C 	0.27724 0.82063 1.02804 0.23200
F 	F 	0.21715 0.85791 1.02500 -0.32600
H 	H 	0.04582 0.72560 1.01494 0.12400
H 	H 	1.00400 0.78902 1.02310 0.11300
H 	H 	0.15718 0.70274 0.93089 0.06300
H 	H 	0.12365 0.77145 0.95110 0.09000
C 	C 	0.58119 0.76440 0.53646 -0.16400
C 	C 	0.66978 0.75381 0.56667 0.02600
C 	C 	0.77745 0.73324 0.53654 -0.09500
C 	C 	0.83768 0.76734 0.52647 0.22400
F 	F 	0.80160 0.81943 0.54475 -0.38700
C 	C 	0.93263 0.74695 0.49500 0.26800
F 	F 	0.97098 0.77389 0.47415 -0.36600
C 	C 	0.97845 0.69579 0.47949 -0.17300
C 	C 	0.92021 0.66214 0.49081 0.26700
F 	F 	0.95791 0.61028 0.47242 -0.38100
C 	C 	0.81944 0.68032 0.51839 0.22200
F 	F 	0.76193 0.64577 0.52623 -0.37900
H 	H 	0.61698 0.78586 0.51953 0.13200
H 	H 	0.54637 0.72423 0.50263 0.07600
H 	H 	0.68950 0.79280 0.60674 0.06900
H 	H 	0.63486 0.72390 0.57430 0.09700
C 	C 	-0.00045 0.27134 0.55955 -0.21200
C 	C 	0.11155 0.27511 0.58655 0.04400
C 	C 	0.20697 0.24868 0.54759 -0.10900
C 	C 	0.25531 0.27585 0.52659 0.21700
F 	F 	0.20889 0.32301 0.53594 -0.40900
C 	C 	0.35016 0.25359 0.49452 0.26800
F 	F 	0.38529 0.27558 0.46823 -0.40500
C 	C 	0.40213 0.20596 0.48566 -0.20100
C 	C 	0.34837 0.17629 0.50269 0.27500
F 	F 	0.38581 0.12511 0.48678 -0.39300
C 	C 	0.25228 0.19771 0.53377 0.22600
F 	F 	0.20060 0.16745 0.54847 -0.36200
H 	H 	0.00659 0.29151 0.53813 0.11100
H 	H 	0.97902 0.22671 0.52999 0.10400
H 	H 	0.13364 0.31956 0.61794 0.05100
H 	H 	0.10114 0.25452 0.60758 0.07800
C 	C 	0.55706 0.60213 0.03726 -0.15600
C 	C 	0.60408 0.54276 1.00200 0.02600
C 	C 	0.55545 0.50705 1.01772 -0.06800
C 	C 	0.44388 0.48911 1.00482 0.21400
F 	F 	0.37958 0.50215 0.97654 -0.37800
C 	C 	0.39811 0.45752 1.02110 0.29700
F 	F 	0.28813 0.44493 1.01308 -0.41100
C 	C 	0.46378 0.44194 0.04862 -0.19000
C 	C 	0.57314 0.46184 0.06373 0.30600
F 	F 	0.63502 0.45070 0.09410 -0.36600
C 	C 	0.61969 0.49296 0.04708 0.22500
F 	F 	0.72771 0.50886 0.05919 -0.32400
H 	H 	0.46467 0.60117 0.03671 0.14800
H 	H 	0.58647 0.62322 0.07955 0.14300
H 	H 	0.58523 0.52312 0.95878 0.08600
H 	H 	0.69614 0.54529 1.00648 0.12400
C 	C 	0.48413 0.41157 0.53260 -0.14900
C 	C 	0.58259 0.43693 0.52206 0.02200
C 	C 	0.54356 0.48063 0.51397 -0.08400
C 	C 	0.55854 0.53806 0.55486 0.23500
F 	F 	0.60486 0.55514 0.60291 -0.36800
C 	C 	0.52571 0.57849 0.54660 0.28600
F 	F 	0.54455 0.63339 0.58594 -0.38000
C 	C 	0.47801 0.56203 0.49728 -0.15400
C 	C 	0.45971 0.50465 0.45699 0.27900
F 	F 	0.40986 0.48733 0.40943 -0.37100
C 	C 	0.49198 0.46436 0.46530 0.23000
F 	F 	0.47379 0.40942 0.42552 -0.37700
H 	H 	0.43465 0.44603 0.56626 0.11000
H 	H 	0.42920 0.38722 0.49644 0.14600
H 	H 	0.64143 0.45583 0.55682 0.10500
H 	H 	0.62907 0.40369 0.48607 0.07500
C 	C 	0.04318 0.09045 0.01055 -0.17200
C 	C 	0.08065 0.02966 0.97115 0.04900
C 	C 	0.03440 0.99405 0.98768 -0.10900
C 	C 	0.92564 -0.02747 0.97251 0.28400
F 	F 	0.86163 -0.01685 0.94237 -0.35900
C 	C 	0.88094 0.94149 -0.01018 0.26700
F 	F 	0.77292 0.92578 -0.02098 -0.35500
C 	C 	0.94410 0.93128 0.02224 -0.12200
C 	C 	0.05088 0.95511 0.03948 0.26100
F 	F 	0.11007 0.95046 0.07489 -0.34200
C 	C 	0.09654 0.98525 1.02146 0.28000
F 	F 	0.20032 1.00714 1.03816 -0.32200
H 	H 	-0.04923 0.09283 0.01111 0.13700
H 	H 	0.07345 0.10672 1.05179 0.15300
H 	H 	0.05187 0.01303 0.92961 0.08800
H 	H 	0.17310 0.02776 0.97018 0.10700
C 	C 	0.91627 0.07059 0.51364 -0.13200
C 	C 	0.00545 0.02817 0.47567 -0.01100
C 	C 	0.03506 -0.01373 0.48820 -0.09200
C 	C 	1.02247 0.92804 0.44925 0.27800
F 	F 	0.98399 -0.09242 0.39899 -0.36100
C 	C 	0.05133 0.89011 0.46161 0.27100
F 	F 	1.03856 0.83436 0.42354 -0.31900
C 	C 	0.09068 0.90975 0.51328 -0.12800
C 	C 	0.10587 0.96753 0.55154 0.28300
F 	F 	0.14771 0.98766 0.60120 -0.36300
C 	C 	0.08155 0.00510 0.53855 0.24800
F 	F 	0.10561 0.06002 0.57498 -0.34300
H 	H 	0.84136 0.04805 0.51287 0.13400
H 	H 	0.94844 0.09665 0.55560 0.16100
H 	H 	0.97517 0.00591 0.43343 0.10400
H 	H 	0.08213 0.05151 0.47976 0.10900
C 	C 	0.64839 0.07110 0.19325 -0.16400
C 	C 	0.53301 0.09705 0.19860 0.01800
C 	C 	0.52039 0.11904 0.16432 -0.07900
C 	C 	0.42838 0.10316 0.12915 0.23500
F 	F 	0.35224 0.06600 0.12366 -0.33900
C 	C 	0.40891 0.12913 0.10294 0.28900
F 	F 	0.31289 0.11789 0.07445 -0.38200
C 	C 	0.48218 0.17062 0.11086 -0.16300
C 	C 	0.57786 0.18357 0.14287 0.28400
F 	F 	0.65041 0.22321 0.15075 -0.38000
C 	C 	0.59557 0.15913 0.17027 0.22900
F 	F 	0.68302 0.17738 0.20499 -0.37200
H 	H 	0.69626 0.06710 0.16021 0.13500
H 	H 	0.63855 0.02803 0.18246 0.05500
H 	H 	0.46843 0.06495 0.18779 0.06400
H 	H 	0.51636 0.13217 0.24101 0.05100
C 	C 	0.69600 0.93593 0.35281 -0.17300
C 	C 	0.58518 0.90296 0.33598 0.02600
C 	C 	0.56118 0.88015 0.36860 -0.08700
C 	C 	0.46380 0.89473 0.39938 0.23600
F 	F 	0.39087 0.93216 0.40278 -0.37600
C 	C 	0.43688 0.86761 0.42369 0.28500
F 	F 	0.33833 0.87894 0.44936 -0.37900
C 	C 	0.50621 0.82530 0.41697 -0.15700
C 	C 	0.60594 0.81290 0.38859 0.28500
F 	F 	0.67471 0.77229 0.38167 -0.36500
C 	C 	0.63256 0.83963 0.36427 0.23600
F 	F 	0.72472 0.82318 0.33333 -0.35900
H 	H 	0.73999 0.93513 0.38466 0.13900
H 	H 	0.67926 0.98056 0.36995 0.06400
H 	H 	0.51651 0.92998 0.33877 0.03400
H 	H 	0.58676 0.86661 0.29297 0.05200
C 	C 	0.46377 0.91425 0.81034 -0.13600
C 	C 	0.44314 0.94644 0.87108 0.01100
C 	C 	0.46159 0.91009 0.89081 -0.07900
C 	C 	0.56921 0.89039 0.88983 0.24000
F 	F 	0.65644 0.90393 0.87143 -0.35000
C 	C 	0.58796 0.85690 0.90805 0.30600
F 	F 	0.68996 0.83387 0.90195 -0.34000
C 	C 	0.50126 0.84520 0.93046 -0.15800
C 	C 	0.39314 0.86293 0.92977 0.29700
F 	F 	0.30639 0.84710 0.94593 -0.35700
C 	C 	0.37339 0.89593 0.91087 0.24200
F 	F 	0.26845 0.91401 0.91227 -0.37300
H 	H 	0.52740 0.88108 0.79632 0.11300
H 	H 	0.49763 0.94421 0.80251 -0.03800
H 	H 	0.50329 0.98183 0.89290 0.06500
H 	H 	0.35900 0.96570 0.88135 0.07000
C 	C 	0.47497 0.07981 0.72386 -0.13300
C 	C 	0.44569 0.03914 0.66374 -0.00500
C 	C 	0.46074 0.06758 0.63591 -0.06700
C 	C 	0.56646 0.06933 0.61757 0.22300
F 	F 	0.65307 0.04098 0.62009 -0.37900
C 	C 	0.58510 0.10287 0.59940 0.28700
F 	F 	0.68903 0.10587 0.58426 -0.39900
C 	C 	0.49944 0.13676 0.60143 -0.15800
C 	C 	0.39371 0.13440 0.61904 0.29900
F 	F 	0.31108 0.16833 0.62331 -0.35200
C 	C 	0.37349 0.09863 0.63441 0.23500
F 	F 	0.27003 0.09647 0.65043 -0.33300
H 	H 	0.53893 0.11090 0.73121 0.10000
H 	H 	0.51200 0.05527 0.73775 -0.04200
H 	H 	0.50145 0.00215 0.64530 0.06000
H 	H 	0.35968 0.02237 0.65766 0.09200
C 	C 	0.16735 0.57377 0.18821 -0.16300
C 	C 	0.05746 0.60706 0.20390 0.02700
C 	C 	0.03571 0.63242 0.17285 -0.10000
C 	C 	0.94259 0.61600 0.13830 0.26000
F 	F 	0.87252 0.57604 0.13116 -0.34200
C 	C 	0.91691 0.64303 0.11350 0.27900
F 	F 	0.82213 0.62884 0.08367 -0.38800
C 	C 	0.98340 0.68749 0.12327 -0.12600
C 	C 	0.07819 0.70286 0.15669 0.26100
F 	F 	0.14398 0.74594 0.16752 -0.37200
C 	C 	0.10361 0.67587 0.18134 0.24900
F 	F 	0.19131 0.69445 0.21598 -0.37100
H 	H 	0.20601 0.57037 0.15343 0.12700
H 	H 	0.15015 0.53040 0.17537 0.06400
H 	H 	-0.01151 0.57835 0.19709 0.06300
H 	H 	0.05621 0.64130 0.24764 0.06400
C 	C 	0.92319 0.35569 0.45867 -0.14100
C 	C 	0.86228 0.36152 0.41706 0.02100
C 	C 	0.94360 0.36146 0.37940 -0.08200
C 	C 	0.99461 0.31118 0.33926 0.23300
F 	F 	0.96659 0.26235 0.33194 -0.37300
C 	C 	1.07620 0.31084 0.30690 0.28700
F 	F 	1.12424 0.26141 0.26875 -0.36300
C 	C 	1.10786 0.36067 0.31346 -0.17600
C 	C 	1.05368 0.41071 0.35181 0.26300
F 	F 	1.08307 0.45935 0.35901 -0.44700
C 	C 	0.97219 0.41118 0.38478 0.23100
F 	F 	0.92391 0.46044 0.42303 -0.36300
H 	H 	1.01395 0.34898 0.45072 0.12400
H 	H 	0.91409 0.39534 0.49937 0.11500
H 	H 	0.80035 0.32737 0.39283 0.08600
H 	H 	0.81317 0.40084 0.43883 0.09200
C 	C 	0.13066 0.35323 0.91805 -0.12300
C 	C 	0.04530 0.40092 0.94974 0.00000
C 	C 	-0.05104 0.39397 0.91386 -0.05200
C 	C 	-0.12632 0.34988 0.89533 0.18600
F 	F 	0.88498 0.31501 0.91088 -0.36300
C 	C 	0.78999 0.33923 0.85839 0.33800
F 	F 	0.72234 0.29457 0.84034 -0.39300
C 	C 	-0.21964 0.37199 0.83811 -0.24100
C 	C 	-0.14615 0.41749 0.85806 0.28600
F 	F 	-0.15373 0.45104 0.84088 -0.55500
C 	C 	-0.06284 0.42852 0.89576 0.20500
F 	F 	0.00896 0.47155 0.91279 -0.38000
H 	H 	0.11842 0.33136 0.87398 0.09900
H 	H 	0.21587 0.37109 0.92667 0.12600
H 	H 	0.01342 0.40289 0.98491 0.12600
H 	H 	0.08803 0.44160 0.96668 0.12800
C 	C 	0.08136 0.64634 0.60239 -0.17100
C 	C 	0.95462 0.63693 0.59843 0.04800
C 	C 	0.91072 0.63362 0.64298 -0.06000
C 	C 	-0.10271 0.68320 0.69460 0.20100
F 	F 	-0.06711 0.73284 0.70573 -0.38000
C 	C 	-0.16077 0.68278 0.73377 0.29900
F 	F 	-0.17955 0.73196 0.78195 -0.37500
C 	C 	-0.20620 0.63286 0.72235 -0.25000
C 	C 	0.81417 0.58239 0.67231 0.30700
F 	F 	0.77096 0.53358 0.66040 -0.42400
C 	C 	0.87135 0.58281 0.63253 0.22600
F 	F 	0.88232 0.53420 0.58297 -0.37600
H 	H 	1.11414 0.66086 0.64280 0.13100
H 	H 	0.12272 0.60594 0.57261 0.11300
H 	H 	-0.09018 0.67136 0.60034 0.08500
H 	H 	0.93407 0.59812 0.55828 0.13000
