data_crystal

_cell_length_a 11.86780
_cell_length_b 27.48720
_cell_length_c 30.12220
_cell_angle_alpha 110.15260
_cell_angle_beta  87.56220
_cell_angle_gamma 89.21710

_symmetry_space_group_name_	'P 1'
_symmetry_space_group_name_H-M	'P 1'

loop_
_symmetry_equiv_pos_as_xyz
  x,y,z

loop_
_atom_site_label
_atom_site_type_symbol
_atom_site_fract_x
_atom_site_fract_y
_atom_site_fract_z
_atom_site_charge
Mn	Mn	1.02526 0.41665 0.19041 1.20900
Mn	Mn	0.28039 0.35945 0.14092 1.27800
Mn	Mn	0.51732 0.10359 0.86379 1.23300
Mn	Mn	0.25434 0.15696 0.90966 1.27400
Mn	Mn	0.26519 0.25693 0.02656 1.26600
C 	C 	0.08860 0.35594 0.25407 0.08400
N 	N 	0.12035 0.37705 0.22154 -0.25900
N 	N 	0.21237 0.35101 0.19974 -0.19900
N 	N 	0.23433 0.31294 0.21572 -0.04800
N 	N 	0.15977 0.31574 0.25034 -0.07700
N 	N 	0.41316 0.27546 0.15270 -0.10600
N 	N 	0.35524 0.28951 0.12267 -0.21300
N 	N 	0.34847 0.25053 0.08255 -0.19500
N 	N 	0.40067 0.20864 0.08564 -0.09500
C 	C 	0.43913 0.22516 0.13010 0.11300
C 	C 	0.38759 0.39836 0.02952 0.11400
N 	N 	0.33616 0.36589 0.08029 -0.20400
N 	N 	0.37472 0.40895 0.07646 -0.09500
N 	N 	0.12685 0.29035 0.07253 -0.23000
N 	N 	0.13917 0.33137 0.11090 -0.20200
N 	N 	1.04134 0.35373 0.12978 -0.20400
N 	N 	0.95953 0.32786 0.10509 -0.11200
N 	N 	0.32436 0.33033 0.03823 -0.19600
N 	N 	0.35727 0.34943 0.00488 -0.10000
C 	C 	1.01221 0.28847 0.06939 0.12000
N 	N 	0.42610 0.14465 0.83333 -0.26000
N 	N 	0.32478 0.16493 0.84990 -0.19400
N 	N 	0.29651 0.19925 0.83036 -0.05200
N 	N 	0.38020 0.20216 0.80068 -0.08100
N 	N 	0.12103 0.24525 0.90109 -0.10900
N 	N 	0.17850 0.22771 0.92937 -0.20900
N 	N 	0.18100 0.26347 0.97179 -0.19800
N 	N 	0.12575 0.30594 0.97266 -0.10200
N 	N 	0.20677 0.15873 0.04419 -0.10100
N 	N 	0.20687 0.18303 0.01310 -0.19500
N 	N 	0.19471 0.14869 0.97016 -0.19700
N 	N 	0.18475 0.10177 0.97251 -0.09400
N 	N 	0.40469 0.22511 0.98149 -0.23200
N 	N 	0.39565 0.18515 0.94212 -0.19700
N 	N 	0.49607 0.16567 0.92372 -0.20300
N 	N 	0.57583 0.19364 0.94862 -0.11500
Cl	Cl	0.19136 0.43873 0.16388 -0.77900
Cl	Cl	0.34794 0.07874 0.88602 -0.74400
C 	C 	0.46075 0.16822 0.80318 0.12800
C 	C 	0.08923 0.29399 0.92845 0.13800
C 	C 	0.19097 0.10842 0.01858 0.13800
C 	C 	0.51905 0.23080 0.98462 0.14300
Mn	Mn	0.52431 0.93450 0.20073 1.20400
Mn	Mn	0.76202 0.85974 0.14875 1.27300
Mn	Mn	-0.07078 0.60071 0.86606 1.21200
Mn	Mn	0.68143 0.66863 0.91485 1.27900
Mn	Mn	0.71554 0.76859 0.03024 1.26800
C 	C 	0.59891 0.89145 0.27643 0.09700
N 	N 	0.60085 0.88846 0.23086 -0.26300
N 	N 	0.69149 0.85968 0.21070 -0.19700
N 	N 	0.74614 0.84675 0.24255 -0.05600
N 	N 	0.68959 0.86570 0.28407 -0.08000
N 	N 	0.83186 0.75681 0.15384 -0.09800
N 	N 	0.79746 0.78325 0.12698 -0.21000
N 	N 	0.77424 0.75087 0.08491 -0.20000
N 	N 	0.79215 0.70272 0.08239 -0.09800
C 	C 	0.82831 0.70675 0.12515 0.12100
C 	C 	0.89974 0.89869 0.04234 0.11800
N 	N 	0.83431 0.86292 0.08886 -0.20500
N 	N 	0.88906 0.90399 0.08826 -0.09700
N 	N 	0.58856 0.81381 0.07555 -0.22900
N 	N 	0.61161 0.84686 0.11785 -0.19600
N 	N 	0.51978 0.87304 0.13978 -0.21300
N 	N 	0.43137 0.85640 0.11428 -0.12200
N 	N 	0.81250 0.83305 0.04547 -0.19500
N 	N 	0.85029 0.85506 0.01504 -0.09500
C 	C 	0.47374 0.81903 0.07436 0.11400
N 	N 	0.84703 0.64350 0.83401 -0.25400
N 	N 	0.75077 0.66795 0.85266 -0.19600
N 	N 	0.70082 0.68489 0.82219 -0.05500
N 	N 	0.76604 0.67319 0.78315 -0.08900
N 	N 	0.61124 0.76211 0.89948 -0.09900
N 	N 	0.63581 0.74383 0.93271 -0.20600
N 	N 	0.65884 0.78214 0.97186 -0.19100
N 	N 	0.65138 0.82721 0.96415 -0.09300
N 	N 	0.55350 0.69349 0.04909 -0.10000
N 	N 	0.61754 0.70475 0.01698 -0.19400
N 	N 	0.61049 0.66787 0.97547 -0.19600
N 	N 	0.53988 0.63237 0.97840 -0.10000
N 	N 	0.84449 0.72378 0.98709 -0.23100
N 	N 	0.82821 0.68887 0.94515 -0.19500
N 	N 	-0.07678 0.66360 0.92613 -0.21000
N 	N 	0.00597 0.68121 0.95466 -0.11900
Cl	Cl	0.70406 0.94468 0.17395 -0.75700
Cl	Cl	0.75261 0.58592 0.89341 -0.74500
C 	C 	0.85685 0.64728 0.79053 0.11200
C 	C 	0.62055 0.81348 0.91853 0.12500
C 	C 	0.50582 0.64826 0.02451 0.13700
C 	C 	-0.04302 0.71890 0.99269 0.14100
Mn	Mn	1.00181 0.59019 0.35465 1.20700
Mn	Mn	0.24751 0.63319 0.40963 1.27500
Mn	Mn	0.45691 0.86892 0.68469 1.22700
Mn	Mn	0.19391 0.83452 0.64221 1.27500
Mn	Mn	0.20606 0.74127 0.52123 1.26900
C 	C 	0.12252 0.63784 0.28773 0.11100
N 	N 	0.12189 0.62210 0.32519 -0.26500
N 	N 	0.21781 0.63716 0.34517 -0.19600
N 	N 	0.27803 0.65988 0.32034 -0.05300
N 	N 	0.22016 0.66111 0.28400 -0.09000
N 	N 	0.39533 0.71025 0.39647 -0.11000
N 	N 	0.32911 0.70008 0.42773 -0.21400
N 	N 	0.30403 0.74285 0.46410 -0.19600
N 	N 	0.35160 0.78327 0.45655 -0.09400
C 	C 	0.40920 0.76145 0.41395 0.11200
C 	C 	0.32293 0.60374 0.52787 0.11000
N 	N 	0.27242 0.62835 0.47251 -0.20300
N 	N 	0.31403 0.58726 0.48047 -0.09500
N 	N 	0.07695 0.71247 0.47421 -0.22500
N 	N 	0.09968 0.67143 0.43516 -0.19800
N 	N 	1.00741 0.65412 0.41283 -0.21000
N 	N 	0.92020 0.68309 0.43481 -0.12100
N 	N 	0.25743 0.66756 0.51244 -0.19700
N 	N 	0.28840 0.65377 0.54815 -0.09800
C 	C 	0.96213 0.71939 0.47264 0.12300
N 	N 	0.35237 0.82791 0.71201 -0.25600
N 	N 	0.24877 0.81746 0.69807 -0.19600
N 	N 	0.20603 0.78306 0.71520 -0.05100
N 	N 	0.28295 0.76968 0.73987 -0.08800
N 	N 	0.03818 0.75183 0.64651 -0.11000
N 	N 	0.10690 0.76876 0.61964 -0.20700
N 	N 	0.10825 0.73686 0.57545 -0.20000
N 	N 	0.04242 0.69756 0.57179 -0.10600
N 	N 	0.09088 0.83954 0.51523 -0.09800
N 	N 	0.15082 0.81811 0.54029 -0.18800
N 	N 	0.14779 0.85026 0.58509 -0.19600
N 	N 	0.08869 0.89268 0.59036 -0.10100
N 	N 	0.34273 0.76495 0.56335 -0.23200
N 	N 	0.33439 0.80125 0.60544 -0.19900
N 	N 	0.43495 0.81398 0.62183 -0.20700
N 	N 	0.51392 0.78457 0.59257 -0.11500
Cl	Cl	0.14449 0.56086 0.38787 -0.77300
Cl	Cl	0.29802 0.90664 0.66874 -0.74300
C 	C 	0.37476 0.79726 0.73719 0.13900
C 	C 	-0.00033 0.70734 0.61613 0.14000
C 	C 	0.05464 0.88620 0.54705 0.11800
C 	C 	0.45665 0.75372 0.55611 0.14400
Mn	Mn	0.54642 0.05355 0.34756 1.20300
Mn	Mn	0.78576 0.11622 0.39423 1.27400
Mn	Mn	-0.06122 0.36850 0.67499 1.20800
Mn	Mn	0.68858 0.31952 0.62657 1.27400
Mn	Mn	0.72930 0.22180 0.50754 1.27000
C 	C 	0.64841 0.08785 0.26718 0.10200
N 	N 	0.64123 0.09199 0.31320 -0.26200
N 	N 	0.73590 0.11356 0.33050 -0.20000
N 	N 	0.80216 0.11977 0.29660 -0.05900
N 	N 	0.74935 0.10420 0.25644 -0.08200
N 	N 	0.88849 0.20743 0.37926 -0.11000
N 	N 	0.83556 0.19012 0.40995 -0.20900
N 	N 	0.81394 0.22861 0.45051 -0.20000
N 	N 	0.85203 0.27241 0.44763 -0.10500
C 	C 	0.89713 0.25851 0.40295 0.13900
C 	C 	0.92628 0.10043 0.50800 0.14000
N 	N 	0.83502 0.11628 0.45625 -0.20200
N 	N 	0.90882 0.08246 0.46136 -0.10900
N 	N 	0.60579 0.18365 0.46173 -0.22600
N 	N 	0.63237 0.14197 0.42423 -0.20000
N 	N 	0.54143 0.11746 0.40660 -0.21300
N 	N 	0.45111 0.14285 0.43066 -0.12000
N 	N 	0.80983 0.15316 0.49714 -0.19600
N 	N 	0.86621 0.14459 0.53067 -0.10500
C 	C 	0.49009 0.18538 0.46422 0.11000
N 	N 	0.83865 0.32738 0.70353 -0.25900
N 	N 	0.73978 0.31126 0.68715 -0.19400
N 	N 	0.69048 0.28677 0.71330 -0.05300
N 	N 	0.75933 0.28531 0.74650 -0.08700
N 	N 	0.57318 0.22988 0.63530 -0.10200
N 	N 	0.62263 0.24924 0.60544 -0.21200
N 	N 	0.64031 0.21287 0.56347 -0.19600
N 	N 	0.60232 0.16819 0.56474 -0.09600
N 	N 	0.62278 0.31587 0.49231 -0.10200
N 	N 	0.65371 0.29390 0.52302 -0.19300
N 	N 	0.64207 0.32858 0.56642 -0.20100
N 	N 	0.60151 0.37302 0.56569 -0.10400
N 	N 	0.85807 0.25703 0.55109 -0.22700
N 	N 	0.83825 0.29029 0.59453 -0.19600
N 	N 	-0.06648 0.30851 0.61381 -0.21500
N 	N 	0.02032 0.28725 0.58466 -0.12300
Cl	Cl	0.71356 0.03571 0.37564 -0.75900
Cl	Cl	0.77606 0.39672 0.65157 -0.76300
C 	C 	0.85191 0.31053 0.73984 0.10300
C 	C 	0.56022 0.17978 0.60975 0.11400
C 	C 	0.58826 0.36451 0.51963 0.13800
C 	C 	-0.02622 0.25483 0.54573 0.13400
C 	C 	0.57953 0.27718 1.01479 -0.13000
C 	C 	0.63754 0.26809 0.05532 -0.08300
C 	C 	0.74254 0.23361 0.04189 0.03400
C 	C 	0.84251 0.25421 0.03052 -0.05600
C 	C 	0.94529 0.24301 0.04702 -0.03100
C 	C 	0.94887 0.20430 0.06766 -0.00700
C 	C 	0.85080 0.17875 0.07371 -0.04700
C 	C 	0.84952 0.14664 0.10436 0.27900
O 	O 	0.77292 0.11701 0.10281 -0.23200
O 	O 	0.93327 0.15184 0.13665 -0.30500
C 	C 	0.74868 0.19203 0.05853 -0.02500
H 	H 	0.52155 0.31045 1.03054 0.05800
H 	H 	0.64211 0.28898 0.99222 0.06400
H 	H 	0.66154 0.30642 1.08035 0.04700
H 	H 	0.57615 0.25353 0.07553 0.05000
H 	H 	0.83608 0.28842 1.02045 0.05300
H 	H 	1.02267 0.20037 0.08614 0.05300
H 	H 	0.92147 0.12877 0.15635 0.16500
H 	H 	0.67126 0.17602 0.06703 0.05800
C 	C 	0.02288 0.75096 0.03390 -0.13300
C 	C 	0.11713 0.71914 0.04689 -0.07600
C 	C 	0.23154 0.72978 1.02875 0.03100
C 	C 	0.30553 0.76325 0.05943 -0.05000
C 	C 	0.39798 0.78327 0.04117 -0.03500
C 	C 	0.40621 0.77393 0.99246 -0.01500
C 	C 	0.34166 0.73589 0.96137 -0.06100
C 	C 	0.35350 0.72407 0.90981 0.27200
O 	O 	0.34018 0.68003 0.88288 -0.26200
O 	O 	0.37620 0.76354 0.89182 -0.30200
C 	C 	0.25848 0.71191 0.97999 -0.02900
H 	H 	-0.03354 0.76920 0.06539 0.04200
H 	H 	0.05901 0.78370 0.02490 0.06100
H 	H 	0.11564 0.73032 0.08609 0.03800
H 	H 	0.10183 0.67685 1.03293 0.04800
H 	H 	0.28858 0.77536 0.09737 0.03700
H 	H 	0.45785 0.79779 0.97910 0.05300
H 	H 	0.37970 0.75079 0.85593 0.16100
H 	H 	0.20858 0.68282 0.95612 0.04200
C 	C 	0.51442 0.70602 0.52145 -0.13400
C 	C 	0.59577 0.71605 0.48533 -0.06500
C 	C 	0.67916 0.75865 0.50343 0.02600
C 	C 	0.78499 0.74554 0.51604 -0.04500
C 	C 	0.88398 0.76229 0.49882 -0.03500
C 	C 	0.87254 0.80078 0.47804 -0.00600
C 	C 	0.76637 0.82229 0.47475 -0.05600
C 	C 	0.75652 0.86225 0.45217 0.28300
O 	O 	0.66394 0.87966 0.44802 -0.23200
O 	O 	0.85338 0.88063 0.43608 -0.30500
C 	C 	0.66957 0.80107 0.48803 -0.02400
H 	H 	0.45392 0.67850 0.50102 0.04700
H 	H 	0.56148 0.68596 0.54166 0.06000
H 	H 	0.64369 0.67917 0.46612 0.02800
H 	H 	0.54654 0.72310 0.45796 0.04600
H 	H 	0.79100 0.71093 0.52555 0.04000
H 	H 	0.94377 0.80862 0.45811 0.05300
H 	H 	0.83574 0.90800 0.42164 0.17100
H 	H 	0.58744 0.81223 0.47965 0.05900
C 	C 	0.04715 0.22729 0.50213 -0.12800
C 	C 	0.10461 0.26814 0.48439 -0.06700
C 	C 	0.23126 0.26702 0.47426 0.01200
C 	C 	0.31141 0.23754 0.48829 -0.04600
C 	C 	0.42384 0.23261 0.46975 -0.03500
C 	C 	0.45444 0.25746 0.43747 -0.00600
C 	C 	0.37781 0.28930 0.42556 -0.07000
C 	C 	0.40814 0.31347 0.38969 0.26800
O 	O 	0.36004 0.35365 0.39184 -0.22100
O 	O 	0.48829 0.29113 0.35255 -0.29200
C 	C 	0.26810 0.29546 0.44571 -0.02900
H 	H 	-0.00446 0.20151 0.47440 0.04100
H 	H 	0.10848 0.20137 0.51029 0.05500
H 	H 	0.06900 0.26163 0.45001 0.04300
H 	H 	0.07864 0.30855 0.50669 0.04100
H 	H 	0.28672 0.21558 0.51061 0.03800
H 	H 	0.53756 0.24965 0.41978 0.03200
H 	H 	0.51343 0.25455 0.34879 0.14000
H 	H 	0.20830 0.31985 0.43622 0.04400
C 	C 	0.42192 0.62058 0.04572 -0.13500
C 	C 	0.37097 0.57231 1.00920 -0.05600
C 	C 	0.43382 0.52180 1.00343 0.02400
C 	C 	0.37952 0.48197 1.01469 -0.03500
C 	C 	0.43774 0.43527 0.00944 -0.02500
C 	C 	0.55199 0.42906 -0.00550 -0.01700
C 	C 	0.60806 0.46883 0.98420 -0.04600
C 	C 	0.73156 0.46521 0.97479 0.28800
O 	O 	0.77749 0.49342 0.95634 -0.24200
O 	O 	0.79641 0.43082 -0.01124 -0.31900
C 	C 	0.54752 0.51420 0.98721 -0.02600
H 	H 	0.35187 0.64887 1.06314 0.06400
H 	H 	0.46182 0.60978 0.07387 0.07400
H 	H 	0.28193 0.57004 1.02128 0.03700
H 	H 	0.36636 0.57697 0.97410 0.04200
H 	H 	0.29283 0.48768 0.02869 0.04000
H 	H 	0.59854 0.39446 -0.00648 0.04600
H 	H 	0.88022 0.43473 0.98369 0.16000
H 	H 	0.59097 0.54457 0.97918 0.07200
C 	C 	0.53983 0.40485 0.50225 -0.11900
C 	C 	0.42778 0.42869 0.53015 -0.07000
C 	C 	0.43161 0.48706 0.55311 0.03400
C 	C 	0.36660 0.51908 0.53624 -0.06400
C 	C 	0.37684 0.57274 0.55304 -0.00900
C 	C 	0.44546 0.59557 0.59107 -0.01600
C 	C 	0.50771 0.56442 0.61052 -0.04700
C 	C 	0.58232 0.58871 0.64989 0.28400
O 	O 	0.63929 0.56178 0.66575 -0.24000
O 	O 	0.58791 0.64262 0.66895 -0.30900
C 	C 	0.50076 0.50999 0.59101 -0.03900
H 	H 	0.52576 0.38757 0.46381 0.07000
H 	H 	0.60383 0.43504 0.50640 0.06200
H 	H 	0.35812 0.41781 0.50531 0.05700
H 	H 	0.40584 0.41224 0.55824 0.04200
H 	H 	0.30710 0.50249 0.51009 0.07400
H 	H 	0.45283 0.63733 0.60443 0.05200
H 	H 	0.64250 0.65461 0.69530 0.16000
H 	H 	0.54899 0.48531 0.60504 0.06100
C 	C 	0.21945 0.06419 0.03507 -0.12700
C 	C 	0.12904 0.05512 0.06876 -0.06200
C 	C 	0.03498 0.02189 0.04331 0.00900
C 	C 	1.02216 0.97190 0.04525 -0.02500
C 	C 	0.92578 0.94374 0.02848 -0.02000
C 	C 	0.83995 0.96665 0.01116 0.01000
C 	C 	0.85104 0.01663 0.00904 -0.06200
C 	C 	0.75338 0.04333 -0.00253 0.29900
O 	O 	0.76677 0.08225 -0.01267 -0.25600
O 	O 	0.64502 0.02470 -0.00078 -0.30900
C 	C 	0.95135 0.04301 0.02318 -0.00800
H 	H 	0.29972 0.07301 0.05363 0.06200
H 	H 	0.23581 0.02802 1.00408 0.07400
H 	H 	0.17095 0.03580 0.09087 0.03300
H 	H 	0.09429 0.09266 0.09367 0.05600
H 	H 	0.08385 0.95607 0.06250 0.03400
H 	H 	0.76091 0.94719 0.00326 0.05000
H 	H 	0.58489 0.04703 -0.00808 0.16400
H 	H 	0.96031 0.08181 0.02236 0.05300
C 	C 	1.01621 0.07991 0.53026 -0.11600
C 	C 	0.96812 0.06582 0.57200 -0.06000
C 	C 	0.92171 0.01207 0.55726 0.02000
C 	C 	-0.00327 0.96911 0.54024 -0.03200
C 	C 	-0.03450 0.92086 0.54153 -0.01800
C 	C 	0.85461 0.91499 0.55677 -0.00000
C 	C 	0.77382 0.95577 0.56771 -0.05800
C 	C 	0.65606 0.94827 0.58187 0.27800
O 	O 	0.58500 0.98294 0.58898 -0.23600
O 	O 	0.62560 0.90151 0.58696 -0.32400
C 	C 	0.80879 1.00477 0.56866 -0.01800
H 	H 	1.07790 0.11106 0.54357 0.05900
H 	H 	0.06185 0.04639 0.50335 0.05400
H 	H 	0.03742 0.06735 0.59613 0.04700
H 	H 	0.90365 0.09546 0.59314 0.05000
H 	H 	0.08336 -0.02539 0.53135 0.03900
H 	H 	0.83288 0.87933 0.56235 0.04500
H 	H 	0.54283 0.90136 0.59684 0.13600
H 	H 	0.75030 1.03784 0.58123 0.05600
C 	C 	0.55585 0.07169 0.23290 -0.11400
C 	C 	0.47832 0.11789 0.23376 -0.07600
C 	C 	0.52897 0.15231 0.20826 0.03300
C 	C 	0.47401 0.16089 0.17069 -0.04400
C 	C 	0.51523 0.19749 0.15133 -0.01200
C 	C 	0.61694 0.22166 0.16657 -0.00500
C 	C 	0.67246 0.21366 0.20353 -0.04900
C 	C 	0.77719 0.24137 0.22040 0.28300
O 	O 	0.82310 0.23626 0.25411 -0.24100
O 	O 	0.82476 0.27284 0.19724 -0.31600
C 	C 	0.62349 0.18170 0.22602 -0.02300
H 	H 	0.50427 0.04286 0.24228 -0.07800
H 	H 	0.59344 0.05219 0.19649 0.05200
H 	H 	0.39880 0.10166 0.21722 0.02300
H 	H 	0.45449 0.14207 0.27105 0.02600
H 	H 	0.39385 0.14330 0.15999 0.04400
H 	H 	0.64715 0.25069 0.15247 0.04200
H 	H 	0.89736 0.28877 0.21130 0.14400
H 	H 	0.65580 0.18211 0.25895 0.06400
C 	C 	0.50794 0.91756 0.31373 -0.11600
C 	C 	0.41480 0.88036 0.31821 -0.07400
C 	C 	0.45891 0.83499 0.33089 0.03200
C 	C 	0.42761 0.82852 0.37431 -0.04200
C 	C 	0.47242 0.78607 0.38445 -0.00900
C 	C 	0.55834 0.75456 0.35381 -0.00500
C 	C 	0.58243 0.75791 0.30915 -0.05200
C 	C 	0.66084 0.71980 0.27428 0.28300
O 	O 	0.68070 0.72298 0.23529 -0.23600
O 	O 	0.71232 0.68005 0.28579 -0.32600
C 	C 	0.52578 0.79606 0.29701 -0.02200
H 	H 	0.46868 0.94985 0.30498 -0.07900
H 	H 	0.54699 0.93481 0.34836 0.04000
H 	H 	0.35090 0.90332 0.34577 0.02900
H 	H 	0.37115 0.86545 0.28440 0.01900
H 	H 	0.36251 0.85348 0.39777 0.05000
H 	H 	0.59586 0.72288 0.36236 0.04100
H 	H 	0.76239 0.65619 0.25870 0.14800
H 	H 	0.53601 0.79631 0.26121 0.05700
C 	C 	0.49086 0.77757 0.74079 -0.17400
C 	C 	0.57969 0.81962 0.75599 -0.02200
C 	C 	0.58222 0.84829 0.80877 -0.00600
C 	C 	0.59041 0.82103 0.84018 -0.02900
C 	C 	0.61122 0.84621 0.88841 -0.01600
C 	C 	0.63159 0.89944 0.90426 0.00600
C 	C 	0.62729 0.92694 0.87257 -0.07400
C 	C 	0.66825 0.97975 0.88546 0.31000
O 	O 	0.60386 1.01542 0.88729 -0.33500
O 	O 	0.78307 0.98792 0.89169 -0.31300
C 	C 	0.59885 0.90172 0.82565 -0.01000
H 	H 	0.51741 0.75087 0.70468 0.06500
H 	H 	0.48715 0.75323 0.76344 0.08200
H 	H 	0.66385 0.80006 0.74433 0.02500
H 	H 	0.57009 0.84706 0.73654 -0.08800
H 	H 	0.58639 0.77930 0.82626 0.05200
H 	H 	0.65397 0.91894 0.94026 0.05200
H 	H 	0.80383 1.02484 0.89590 0.15200
H 	H 	0.60002 0.92291 0.80121 0.00000
C 	C 	0.58000 0.16583 0.78391 -0.14900
C 	C 	0.60781 0.11463 0.74338 -0.05800
C 	C 	0.54972 0.11194 0.69901 0.02400
C 	C 	0.58166 0.14469 0.67421 -0.04000
C 	C 	0.53056 0.14185 0.63230 -0.01200
C 	C 	0.44811 0.10538 0.61453 -0.00500
C 	C 	0.41377 0.07280 0.63944 -0.04600
C 	C 	0.32683 0.03433 0.62063 0.28400
O 	O 	0.28340 0.01189 0.64527 -0.22400
O 	O 	0.29583 0.02282 0.57413 -0.30800
C 	C 	0.46487 0.07636 0.68172 -0.02100
H 	H 	0.63743 0.16942 0.81301 0.01300
H 	H 	0.59517 0.19936 0.77204 0.07900
H 	H 	0.70054 0.11111 0.73538 0.03000
H 	H 	0.58484 0.08163 0.75502 -0.01400
H 	H 	0.64722 0.17232 0.68746 0.05400
H 	H 	0.40858 0.10363 0.58227 0.04900
H 	H 	0.24437 -0.00761 0.56423 0.16200
H 	H 	0.43979 0.05103 0.70088 0.04000
C 	C 	0.02346 0.63692 0.25869 -0.12700
C 	C 	0.05436 0.60904 0.20617 -0.07100
C 	C 	0.95699 0.61273 0.17710 0.01400
C 	C 	0.93596 0.65847 0.16740 -0.04000
C 	C 	0.84716 0.66116 0.13916 -0.01300
C 	C 	0.77720 0.61862 0.12187 0.00000
C 	C 	0.79483 0.57348 0.13266 -0.07000
C 	C 	0.71702 0.53004 0.11596 0.29000
O 	O 	0.74115 0.48786 0.11864 -0.27300
O 	O 	0.61479 0.53749 0.09764 -0.31200
C 	C 	0.88573 0.57067 0.16008 -0.02200
H 	H 	-0.00449 0.67764 0.26498 0.05800
H 	H 	-0.04686 0.61693 0.27018 -0.01800
H 	H 	0.12967 0.62632 0.19480 0.05100
H 	H 	0.07670 0.56775 0.20028 0.02700
H 	H 	-0.00975 0.69121 0.18077 0.04200
H 	H 	0.70797 0.62102 0.10028 0.05600
H 	H 	0.56708 0.50559 0.08900 0.16300
H 	H 	0.89983 0.53629 0.16918 0.00700
C 	C 	0.96233 0.29323 0.38357 -0.12400
C 	C 	0.90821 0.34747 0.39803 -0.06600
C 	C 	0.97671 0.37821 0.37467 0.02300
C 	C 	0.97098 0.36672 0.32573 -0.05400
C 	C 	1.04780 0.38778 0.30155 -0.05900
C 	C 	0.12419 0.42401 0.32688 -0.01800
C 	C 	0.14001 0.43088 0.37428 -0.04700
C 	C 	0.24498 0.45375 0.39563 0.31200
O 	O 	0.26243 0.45657 0.43581 -0.24700
O 	O 	0.32727 0.46942 0.36925 -0.30200
C 	C 	0.06432 0.40872 0.39851 -0.03400
H 	H 	0.96984 0.27491 0.34441 0.07500
H 	H 	1.04899 0.29660 0.39613 0.06000
H 	H 	0.82008 0.34512 0.38657 0.04900
H 	H 	0.90606 0.36624 0.43726 0.04600
H 	H 	0.91703 0.33622 0.30574 0.04500
H 	H 	0.18517 0.43919 0.30759 0.03900
H 	H 	0.39599 0.48350 0.38792 0.15100
H 	H 	0.07905 0.41153 0.43458 0.05000
C 	C 	0.02625 0.33127 0.91143 -0.12000
C 	C 	0.10081 0.35067 0.87808 -0.06400
C 	C 	0.08194 0.32311 0.82617 0.01800
C 	C 	-0.02354 0.32754 0.80811 -0.05200
C 	C 	-0.03856 0.30636 0.75939 -0.06400
C 	C 	0.05160 0.27996 0.72853 -0.04300
C 	C 	0.15748 0.27485 0.74581 -0.05700
C 	C 	0.25224 0.24728 0.71252 0.26400
O 	O 	0.34689 0.24674 0.72669 -0.23600
O 	O 	1.23372 0.22206 0.66464 -0.31000
C 	C 	0.17214 0.29695 0.79480 -0.03600
H 	H 	-0.00072 0.36527 0.94288 0.05800
H 	H 	-0.05164 0.31320 0.89473 0.05900
H 	H 	0.08101 0.39256 0.88603 0.03000
H 	H 	0.19140 0.34810 0.88549 0.04700
H 	H 	-0.09260 0.34890 0.83182 0.03600
H 	H 	1.03847 0.26318 0.69095 0.03000
H 	H 	1.30499 0.20504 0.64548 0.16100
H 	H 	0.25419 0.29467 0.80850 0.05900
C 	C 	-0.07463 0.67100 0.62977 -0.12900
C 	C 	-0.00826 0.62095 0.62691 -0.07000
C 	C 	0.01934 0.62062 0.67527 0.02200
C 	C 	-0.06890 0.62444 0.70848 -0.04300
C 	C 	-0.04818 0.62925 0.75515 -0.06400
C 	C 	0.06301 0.62444 0.76750 -0.01100
C 	C 	0.15334 0.61744 0.73362 -0.06700
C 	C 	0.27072 0.61186 0.74633 0.27700
O 	O 	0.34972 0.61262 0.71929 -0.23600
O 	O 	0.29146 0.60510 0.78911 -0.32200
C 	C 	0.13080 0.61692 0.68781 -0.02800
H 	H 	0.85562 0.66082 0.60499 0.06000
H 	H 	0.88587 0.69160 0.66563 0.06600
H 	H 	0.93898 0.58700 0.61019 0.04800
H 	H 	0.06980 0.61520 0.60362 0.05300
H 	H 	0.84519 0.62675 0.69840 0.05400
H 	H 	0.07941 0.62848 0.80369 -0.02500
H 	H 	0.37495 0.60108 0.79343 0.16400
H 	H 	0.19950 0.61341 0.66190 0.05400
