data_crystal

_audit_creation_method 'AiiDA-DDEC plugin'

_cell_length_a        27.25262
_cell_length_b        27.26306
_cell_length_c        19.46573

_cell_angle_alpha     89.90042
_cell_angle_beta     90.23865
_cell_angle_gamma     89.99953

_symmetry_space_group_name_Hall 'P 1'
_symmetry_space_group_name_H-M  'P 1'

loop_
_symmetry_equiv_pos_as_xyz
 'x,y,z'

loop_
_atom_site_label
_atom_site_type_symbol
_atom_site_fract_x
_atom_site_fract_y
_atom_site_fract_z
_atom_site_charge
Zn         Zn      0.26775   0.11081   0.15470   0.61056
Zn         Zn      0.88945   0.26796   0.15476   0.60982
Zn         Zn      0.73221   0.88909   0.15693   0.61013
Zn         Zn      0.11085   0.73188   0.15451   0.61071
Zn         Zn      0.26816   0.88889   0.84534   0.60893
Zn         Zn      0.11060   0.26760   0.84513   0.60927
Zn         Zn      0.73188   0.11058   0.84533   0.60977
Zn         Zn      0.88897   0.73191   0.84539   0.60976
Zn         Zn      0.73206   0.88905   0.84565   0.60913
Zn         Zn      0.11071   0.73186   0.84525   0.61050
Zn         Zn      0.26821   0.11078   0.84519   0.60900
Zn         Zn      0.88942   0.26788   0.84486   0.60905
Zn         Zn      0.73197   0.11064   0.15481   0.60904
Zn         Zn      0.88909   0.73210   0.15469   0.61041
Zn         Zn      0.26780   0.88913   0.15502   0.60926
Zn         Zn      0.11066   0.26779   0.15525   0.60980
Zn         Zn      0.76786   0.61077   0.65498   0.60970
Zn         Zn      0.38889   0.76804   0.65467   0.61025
Zn         Zn      0.23219   0.38915   0.65471   0.61001
Zn         Zn      0.61080   0.23203   0.65485   0.60832
Zn         Zn      0.76791   0.38931   0.34512   0.60992
Zn         Zn      0.61080   0.76783   0.34559   0.60784
Zn         Zn      0.23209   0.61101   0.34527   0.60863
Zn         Zn      0.38924   0.23224   0.34542   0.60928
Zn         Zn      0.23219   0.38936   0.34521   0.60861
Zn         Zn      0.61085   0.23217   0.34535   0.60944
Zn         Zn      0.76797   0.61075   0.34529   0.60916
Zn         Zn      0.38914   0.76774   0.34549   0.60829
Zn         Zn      0.23214   0.61115   0.65479   0.61027
Zn         Zn      0.38921   0.23202   0.65497   0.61005
Zn         Zn      0.76775   0.38955   0.65480   0.61001
Zn         Zn      0.61097   0.76822   0.65450   0.60924
H          H       0.37443   0.06787   0.20817   0.10822
H          H       0.29983   0.19964   0.25043   0.08415
H          H       0.19285   0.19299   0.09386   0.08700
H          H       0.21073   0.13809   0.29488   0.11130
H          H       0.18816   0.05109   0.24017   0.10906
H          H       0.33687   0.18508   0.07183   0.11367
H          H       0.29751  -0.00017   0.10590   0.08722
H          H       0.24095   0.07537  -0.00071   0.09090
H          H       0.93217   0.37435   0.20750   0.10737
H          H       0.79982   0.30046   0.24916   0.08473
H          H       0.80682   0.19279   0.09219   0.08654
H          H       0.86179   0.21068   0.29324   0.11160
H          H       0.94910   0.18833   0.24388   0.10770
H          H       0.84383   0.35801   0.07076   0.11510
H          H       0.00023   0.29642   0.10687   0.08703
H          H       0.91118   0.22866   0.00009   0.09127
H          H       0.62570   0.93250   0.20877   0.10918
H          H       0.69837   0.79906   0.24926   0.08474
H          H       0.80496   0.80639   0.09491   0.09018
H          H       0.79306   0.86253   0.29575   0.11086
H          H       0.81168   0.94920   0.24340   0.10686
H          H       0.66375   0.81506   0.07254   0.11256
H          H       0.70288  -0.00020   0.10616   0.08787
H          H       0.75984   0.92473   0.00122   0.09278
H          H       0.06717   0.62499   0.20781   0.10622
H          H       0.19941   0.69933   0.25009   0.08678
H          H       0.19557   0.80533   0.09433   0.08858
H          H       0.13395   0.79277   0.29176   0.11322
H          H       0.05122   0.83015   0.18591   0.11069
H          H       0.16089   0.64300   0.07186   0.11269
H          H      -0.00006   0.68814   0.14066   0.08667
H          H       0.09137   0.77116  -0.00045   0.09148
H          H       0.37464   0.93203   0.79286   0.10560
H          H       0.30060   0.79975   0.75050   0.08593
H          H       0.19623   0.80370   0.90693   0.09002
H          H       0.20405   0.86781   0.71015   0.11319
H          H       0.16985   0.94892   0.81626   0.11217
H          H       0.33723   0.81482   0.92967   0.11266
H          H       0.31263  -0.00025   0.85874   0.08615
H          H       0.24069   0.92442  -0.00039   0.08905
H          H       0.06815   0.37420   0.79230   0.10853
H          H       0.20028   0.29994   0.75093   0.08484
H          H       0.19457   0.19378   0.90720   0.08886
H          H       0.13603   0.20800   0.70737   0.11105
H          H       0.05082   0.18821   0.75601   0.10636
H          H       0.15619   0.35755   0.92855   0.11450
H          H      -0.00013   0.29585   0.89330   0.08748
H          H       0.08941   0.22796   0.00004   0.09214
H          H       0.62512   0.06735   0.79227   0.10601
H          H       0.69932   0.19964   0.75048   0.08636
H          H       0.80544   0.19541   0.90712   0.08749
H          H       0.79270   0.13381   0.70945   0.11361
H          H       0.83027   0.05094   0.81377   0.11129
H          H       0.64222   0.15839   0.92784   0.11360
H          H       0.68797  -0.00015   0.85732   0.08610
H          H       0.77085   0.08983   0.00023   0.09089
H          H       0.93276   0.62529   0.79256   0.10497
H          H       0.80059   0.69950   0.74908   0.08622
H          H       0.80395   0.80328   0.90609   0.09077
H          H       0.86688   0.79577   0.70900   0.11337
H          H       0.94846   0.83025   0.81435   0.11120
H          H       0.81290   0.66406   0.92838   0.11203
H          H      -0.00004   0.68812   0.85890   0.08660
H          H       0.92441   0.75823   0.00008   0.09112
H          H       0.62500   0.93207   0.79302   0.10589
H          H       0.69946   0.80017   0.75065   0.08607
H          H       0.79507   0.86810   0.70969   0.11319
H          H       0.83035   0.94880   0.81455   0.11327
H          H       0.66345   0.81519   0.92960   0.11191
H          H       0.06819   0.62476   0.79285   0.10655
H          H       0.19880   0.70087   0.74811   0.08562
H          H       0.13131   0.79638   0.71031   0.11383
H          H       0.05063   0.83039   0.81390   0.11048
H          H       0.16064   0.64293   0.92862   0.11242
H          H       0.37466   0.06738   0.79255   0.10579
H          H       0.30059   0.19970   0.74970   0.08588
H          H       0.20720   0.13517   0.70793   0.11348
H          H       0.16998   0.05107   0.81633   0.11544
H          H       0.33732   0.18501   0.92884   0.11278
H          H       0.93295   0.37406   0.79139   0.10856
H          H       0.79944   0.30145   0.75186   0.08637
H          H       0.86292   0.20752   0.70715   0.11235
H          H       0.94904   0.18877   0.75449   0.10642
H          H       0.84372   0.35796   0.92771   0.11515
H          H       0.62589   0.06772   0.20828   0.10819
H          H       0.70007   0.19998   0.25005   0.08381
H          H       0.79020   0.13836   0.29346   0.11165
H          H       0.81177   0.05100   0.24247   0.10759
H          H       0.64232   0.15881   0.07098   0.11495
H          H       0.93180   0.62469   0.20665   0.10565
H          H       0.80150   0.70081   0.25262   0.08562
H          H       0.86646   0.79193   0.29290   0.11302
H          H       0.94905   0.83041   0.18454   0.11280
H          H       0.81308   0.66415   0.07146   0.11214
H          H       0.37427   0.93257   0.20885   0.10876
H          H       0.30118   0.79937   0.24862   0.08543
H          H       0.20705   0.86364   0.29409   0.11277
H          H       0.18821   0.94932   0.24113   0.10820
H          H       0.33675   0.81494   0.07271   0.11298
H          H       0.06721   0.37405   0.20823   0.10834
H          H       0.20095   0.30171   0.24778   0.08531
H          H       0.13934   0.21068   0.29512   0.11139
H          H       0.05096   0.18851   0.24505   0.10718
H          H       0.15619   0.35762   0.07163   0.11418
H          H       0.87524   0.56764   0.70737   0.10583
H          H       0.69636   0.69725   0.59404   0.08948
H          H       0.70438   0.63180   0.79013   0.11334
H          H       0.66918   0.55140   0.68839   0.11255
H          H       0.85723   0.65842   0.57228   0.11382
H          H       0.81116   0.50017   0.64379   0.08552
H          H       0.72837   0.59025   0.50005   0.09187
H          H       0.43201   0.87490   0.70751   0.10684
H          H       0.30554   0.69427   0.59463   0.08979
H          H       0.36550   0.70739   0.79365   0.11299
H          H       0.44886   0.67037   0.68418   0.11264
H          H       0.31296   0.83599   0.57083   0.11213
H          H       0.49993   0.81281   0.64112   0.08617
H          H       0.42406   0.74131   0.50051   0.09101
H          H       0.12600   0.43195   0.70748   0.10831
H          H       0.30516   0.30587   0.59366   0.08827
H          H       0.29320   0.36393   0.79331   0.11370
H          H       0.31157   0.44922   0.74085   0.10758
H          H       0.16318   0.31494   0.57133   0.11304
H          H       0.20199   0.50020   0.60517   0.08720
H          H       0.25937   0.42459   0.49982   0.08938
H          H       0.56748   0.12508   0.70702   0.10552
H          H       0.69617   0.30320   0.59361   0.08947
H          H       0.63270   0.29579   0.79036   0.11434
H          H       0.55114   0.33028   0.68606   0.11152
H          H       0.68482   0.16289   0.57215   0.11283
H          H       0.50003   0.18770   0.64412   0.08585
H          H       0.57498   0.25902   0.50028   0.09235
H          H       0.87452   0.43218   0.29221   0.10877
H          H       0.69280   0.30727   0.40674   0.08814
H          H       0.71052   0.36118   0.20531   0.11356
H          H       0.68898   0.44932   0.25545   0.10761
H          H       0.85720   0.34131   0.42931   0.11384
H          H       0.79670   0.49997   0.39401   0.08828
H          H       0.72842   0.41003   0.49987   0.09218
H          H       0.56763   0.87491   0.29322   0.10535
H          H       0.69491   0.69446   0.40682   0.08877
H          H       0.63409   0.70722   0.20826   0.11296
H          H       0.55116   0.66924   0.31705   0.11268
H          H       0.68685   0.83604   0.42859   0.11235
H          H       0.49991   0.81136   0.36100   0.08686
H          H       0.57554   0.74197   0.50007   0.09062
H          H       0.12493   0.56752   0.29321   0.10555
H          H       0.30396   0.69595   0.40579   0.09007
H          H       0.29533   0.63259   0.20878   0.11369
H          H       0.33043   0.55144   0.31617   0.11230
H          H       0.16278   0.68514   0.42806   0.11277
H          H       0.18807   0.50018   0.35883   0.08588
H          H       0.25978   0.57611   0.50002   0.08927
H          H       0.43247   0.12602   0.29262   0.10762
H          H       0.30578   0.30592   0.40687   0.08888
H          H       0.36365   0.29259   0.20735   0.11046
H          H       0.44927   0.31191   0.25778   0.10683
H          H       0.34138   0.14271   0.42857   0.11426
H          H       0.49978   0.20366   0.39554   0.08707
H          H       0.40933   0.27173   0.50048   0.09193
H          H       0.12470   0.43201   0.29345   0.10539
H          H       0.29290   0.36583   0.20793   0.11377
H          H       0.33065   0.44928   0.31691   0.11335
H          H       0.16289   0.31520   0.42829   0.11293
H          H       0.56816   0.12569   0.29270   0.10860
H          H       0.63859   0.28916   0.20540   0.11374
H          H       0.55109   0.31131   0.25796   0.10812
H          H       0.68498   0.16329   0.42915   0.11296
H          H       0.87415   0.56730   0.29192   0.10797
H          H       0.70781   0.63693   0.20688   0.11063
H          H       0.68904   0.55108   0.25544   0.10583
H          H       0.85708   0.65894   0.42911   0.11308
H          H       0.43226   0.87477   0.29374   0.10572
H          H       0.36802   0.70405   0.20943   0.11249
H          H       0.44897   0.66902   0.31702   0.11242
H          H       0.31313   0.83585   0.42777   0.11167
H          H       0.12599   0.56771   0.70766   0.10814
H          H       0.29218   0.63671   0.79473   0.11107
H          H       0.31128   0.55098   0.74123   0.10786
H          H       0.16318   0.68534   0.57108   0.11327
H          H       0.43219   0.12477   0.70743   0.10628
H          H       0.36611   0.29285   0.79223   0.11354
H          H       0.44892   0.33008   0.68655   0.11197
H          H       0.34174   0.14251   0.57173   0.11372
H          H       0.87534   0.43209   0.70612   0.10549
H          H       0.70413   0.36847   0.78949   0.11405
H          H       0.66887   0.44926   0.68768   0.11056
H          H       0.85729   0.34200   0.57250   0.11304
H          H       0.56750   0.87473   0.70741   0.10524
H          H       0.63214   0.70372   0.79031   0.11368
H          H       0.55108   0.67026   0.68389   0.11121
H          H       0.68701   0.83622   0.57165   0.11215
C          C       0.36755   0.10390   0.22930  -0.07330
C          C       0.32811   0.17170   0.25027   0.10935
C          C       0.18763   0.18763   0.14853   0.11675
C          C       0.19608   0.15991   0.25300  -0.07550
C          C       0.21111   0.02534   0.21279  -0.06834
C          C       0.31686   0.16255   0.03555  -0.07170
C          C       0.26795  -0.00009   0.14295   0.10486
C          C       0.26701   0.10539  -0.00036   0.10719
C          C       0.89612   0.36757   0.22862  -0.07479
C          C       0.82808   0.32842   0.24947   0.11075
C          C       0.81241   0.18748   0.14685   0.11443
C          C       0.84018   0.19589   0.25131  -0.07547
C          C       0.97481   0.21115   0.21613  -0.06934
C          C       0.85742   0.33111   0.03469  -0.07123
C          C       0.00015   0.26736   0.14491   0.10621
C          C       0.89242   0.26370  -0.00020   0.10514
C          C       0.63221   0.89622   0.22958  -0.07099
C          C       0.67068   0.82759   0.24964   0.10832
C          C       0.81196   0.81231   0.14913   0.11416
C          C       0.80666   0.84073   0.25346  -0.08085
C          C       0.78879   0.97479   0.21525  -0.06823
C          C       0.68381   0.83762   0.03648  -0.07211
C          C       0.73219  -0.00014   0.14397   0.10608
C          C       0.73375   0.89474   0.00111   0.10514
C          C       0.10324   0.63200   0.22906  -0.07357
C          C       0.17124   0.67127   0.25014   0.10900
C          C       0.18843   0.81181   0.14829   0.11434
C          C       0.15742   0.80605   0.25103  -0.07618
C          C       0.02535   0.80076   0.17658  -0.07200
C          C       0.14694   0.66971   0.03550  -0.07225
C          C       0.00001   0.72681   0.15336   0.10884
C          C       0.11089   0.73652  -0.00023   0.11112
C          C       0.36763   0.89609   0.77146  -0.07322
C          C       0.32851   0.82806   0.75035   0.11107
C          C       0.18826   0.81160   0.85342   0.11087
C          C       0.19145   0.84403   0.75104  -0.07929
C          C       0.19944   0.97468   0.82489  -0.07197
C          C       0.31698   0.83731   0.96553  -0.07062
C          C       0.27379  -0.00018   0.84670   0.10544
C          C       0.26682   0.89446  -0.00002   0.10770
C          C       0.10419   0.36735   0.77123  -0.07409
C          C       0.17212   0.32801   0.75049   0.10938
C          C       0.18796   0.18751   0.85297   0.11308
C          C       0.15836   0.19399   0.74915  -0.07854
C          C       0.02517   0.21102   0.78376  -0.07056
C          C       0.14271   0.33062   0.96479  -0.07262
C          C      -0.00008   0.26698   0.85513   0.10713
C          C       0.10801   0.26308   0.00012   0.10468
C          C       0.63209   0.10341   0.77108  -0.07387
C          C       0.67131   0.17143   0.75022   0.11137
C          C       0.81180   0.18837   0.85310   0.11259
C          C       0.80596   0.15737   0.75024  -0.07600
C          C       0.80079   0.02511   0.82262  -0.07390
C          C       0.66906   0.14477   0.96429  -0.07209
C          C       0.72670  -0.00014   0.84500   0.10809
C          C       0.73609   0.10911   0.00003   0.10732
C          C       0.89674   0.63226   0.77107  -0.07159
C          C       0.82873   0.67141   0.74952   0.11153
C          C       0.81146   0.81128   0.85258   0.11268
C          C       0.84331   0.80820   0.75007  -0.07766
C          C       0.97438   0.80082   0.82327  -0.07113
C          C       0.83577   0.68381   0.96456  -0.07350
C          C      -0.00014   0.72680   0.84611   0.10938
C          C       0.89384   0.73280   0.00002   0.10832
C          C       0.63204   0.89614   0.77165  -0.07309
C          C       0.67136   0.82829   0.75058   0.10953
C          C       0.80769   0.84403   0.75039  -0.07969
C          C       0.80082   0.97460   0.82301  -0.07307
C          C       0.68368   0.83763   0.96576  -0.07190
C          C       0.10388   0.63222   0.77105  -0.07698
C          C       0.17103   0.67243   0.74867   0.11083
C          C       0.15544   0.80860   0.75115  -0.07733
C          C       0.02490   0.80087   0.82298  -0.07398
C          C       0.14683   0.66966   0.96476  -0.07330
C          C       0.36768   0.10338   0.77113  -0.07240
C          C       0.32859   0.17146   0.74988   0.11098
C          C       0.19377   0.15796   0.74929  -0.07551
C          C       0.19949   0.02518   0.82493  -0.07519
C          C       0.31711   0.16255   0.96484  -0.07039
C          C       0.89662   0.36763   0.77061  -0.07355
C          C       0.82791   0.32919   0.75094   0.11112
C          C       0.84097   0.19379   0.74926  -0.07793
C          C       0.97466   0.21125   0.78312  -0.06927
C          C       0.85740   0.33106   0.96398  -0.07162
C          C       0.63273   0.10382   0.22930  -0.07420
C          C       0.67202   0.17181   0.25021   0.10913
C          C       0.80460   0.16001   0.25143  -0.07767
C          C       0.78885   0.02526   0.21478  -0.06993
C          C       0.66908   0.14483   0.03501  -0.07263
C          C       0.89619   0.63211   0.22872  -0.07610
C          C       0.82915   0.67227   0.25158   0.10950
C          C       0.84297   0.80560   0.25216  -0.07459
C          C       0.97483   0.80089   0.17593  -0.07186
C          C       0.83582   0.68387   0.03528  -0.07187
C          C       0.36765   0.89630   0.22954  -0.07170
C          C       0.32898   0.82780   0.24926   0.10833
C          C       0.19357   0.84137   0.25205  -0.08072
C          C       0.21114   0.97486   0.21323  -0.06846
C          C       0.31674   0.83739   0.03624  -0.07037
C          C       0.10357   0.36766   0.22897  -0.07077
C          C       0.17236   0.32933   0.24868   0.10851
C          C       0.16065   0.19596   0.25309  -0.07794
C          C       0.02533   0.21122   0.21667  -0.06841
C          C       0.14269   0.33063   0.03549  -0.07225
C          C       0.86816   0.60359   0.72860  -0.07465
C          C       0.68855   0.68895   0.64737   0.11232
C          C       0.69189   0.65589   0.74937  -0.07681
C          C       0.69855   0.52553   0.67930  -0.07404
C          C       0.83036   0.64488   0.53586  -0.07308
C          C       0.77248   0.50019   0.65637   0.10983
C          C       0.76322   0.60938   0.50021   0.10770
C          C       0.39617   0.86768   0.72896  -0.07319
C          C       0.31217   0.68789   0.64886   0.11421
C          C       0.34237   0.69399   0.75239  -0.07588
C          C       0.47472   0.69984   0.67544  -0.07157
C          C       0.33570   0.81610   0.53493  -0.07356
C          C       0.49995   0.77402   0.65326   0.10813
C          C       0.39359   0.76687   0.50019   0.10741
C          C       0.13282   0.39593   0.72890  -0.07291
C          C       0.31213   0.31225   0.64777   0.11436
C          C       0.30682   0.34165   0.75153  -0.07902
C          C       0.28849   0.47488   0.71313  -0.06866
C          C       0.18323   0.33751   0.53526  -0.07150
C          C       0.23152   0.50018   0.64262   0.10595
C          C       0.23324   0.39463   0.49987   0.10820
C          C       0.60343   0.13209   0.72862  -0.07178
C          C       0.68846   0.31133   0.64698   0.11028
C          C       0.65631   0.30831   0.74932  -0.07747
C          C       0.52532   0.30073   0.67757  -0.07279
C          C       0.66234   0.18305   0.53585  -0.07197
C          C       0.50004   0.22649   0.65606   0.10716
C          C       0.60506   0.23301   0.50030   0.10676
C          C       0.86761   0.39617   0.27095  -0.07507
C          C       0.68752   0.31253   0.35200   0.11384
C          C       0.69587   0.33973   0.24737  -0.07899
C          C       0.71165   0.47492   0.28381  -0.06910
C          C       0.83040   0.35530   0.46520  -0.07339
C          C       0.76768   0.50004   0.35578   0.10725
C          C       0.76328   0.39090   0.50005   0.10924
C          C       0.60339   0.86762   0.27160  -0.07194
C          C       0.68814   0.68801   0.35267   0.11248
C          C       0.65749   0.69391   0.24934  -0.07618
C          C       0.52528   0.69864   0.32593  -0.07248
C          C       0.66410   0.81633   0.46477  -0.07313
C          C       0.49995   0.77265   0.34855   0.10630
C          C       0.60610   0.76741   0.50009   0.10789
C          C       0.13194   0.60343   0.27162  -0.07247
C          C       0.31169   0.68824   0.35230   0.11258
C          C       0.30806   0.65617   0.24984  -0.07779
C          C       0.30099   0.52556   0.32497  -0.07218
C          C       0.18314   0.66284   0.46437  -0.07147
C          C       0.22686   0.50022   0.34692   0.10674
C          C       0.23353   0.60597   0.49992   0.10747
C          C       0.39629   0.13266   0.27146  -0.07187
C          C       0.31224   0.31249   0.35273   0.11270
C          C       0.34150   0.30647   0.24907  -0.07830
C          C       0.47486   0.28899   0.28589  -0.06941
C          C       0.35514   0.16954   0.46478  -0.07120
C          C       0.49991   0.23268   0.35744   0.10689
C          C       0.39034   0.23680   0.50035   0.10643
C          C       0.13213   0.39638   0.27140  -0.07454
C          C       0.30630   0.34272   0.24923  -0.07459
C          C       0.30109   0.47507   0.32530  -0.07345
C          C       0.18311   0.33756   0.46454  -0.07138
C          C       0.60415   0.13249   0.27145  -0.07257
C          C       0.66014   0.30399   0.24736  -0.07968
C          C       0.52535   0.28874   0.28605  -0.06801
C          C       0.66236   0.18325   0.46514  -0.07096
C          C       0.86763   0.60360   0.27123  -0.07262
C          C       0.69393   0.65891   0.24880  -0.07960
C          C       0.71168   0.52540   0.28380  -0.06903
C          C       0.83033   0.64496   0.46514  -0.07140
C          C       0.39643   0.86761   0.27184  -0.07313
C          C       0.34404   0.69163   0.25012  -0.07684
C          C       0.47476   0.69854   0.32594  -0.07361
C          C       0.33580   0.81606   0.46421  -0.07160
C          C       0.13253   0.60388   0.72858  -0.07047
C          C       0.30613   0.65877   0.75283  -0.07873
C          C       0.28836   0.52535   0.71333  -0.06767
C          C       0.18332   0.66288   0.53508  -0.07079
C          C       0.39629   0.13191   0.72874  -0.07483
C          C       0.34286   0.30624   0.75104  -0.07660
C          C       0.47480   0.30063   0.67799  -0.07291
C          C       0.35514   0.16948   0.53550  -0.07351
C          C       0.86800   0.39637   0.72814  -0.07488
C          C       0.69176   0.34430   0.74888  -0.07554
C          C       0.69841   0.47502   0.67887  -0.07315
C          C       0.83043   0.35547   0.53593  -0.07175
C          C       0.60345   0.86765   0.72900  -0.07113
C          C       0.65607   0.69152   0.74950  -0.07731
C          C       0.52523   0.69980   0.67528  -0.07240
C          C       0.66416   0.81644   0.53549  -0.07244
N          N       0.32431   0.12888   0.21597  -0.29001
N          N       0.21306   0.15476   0.18642  -0.28803
N          N       0.24721   0.04110   0.16800  -0.28695
N          N       0.28499   0.12616   0.05740  -0.29129
N          N       0.87084   0.32457   0.21512  -0.29013
N          N       0.84503   0.21320   0.18470  -0.28686
N          N       0.95898   0.24686   0.17045  -0.28901
N          N       0.87965   0.28825   0.05714  -0.28819
N          N       0.67491   0.87063   0.21584  -0.28750
N          N       0.78714   0.84490   0.18786  -0.28712
N          N       0.75275   0.95879   0.17016  -0.28573
N          N       0.71563   0.87399   0.05872  -0.29150
N          N       0.12835   0.67509   0.21563  -0.28615
N          N       0.15431   0.78737   0.18500  -0.28728
N          N       0.04114   0.75360   0.16232  -0.28984
N          N       0.12415   0.71228   0.05743  -0.29309
N          N       0.32465   0.87082   0.78483  -0.28819
N          N       0.21213   0.84582   0.81610  -0.28708
N          N       0.24674   0.95876   0.83864  -0.28493
N          N       0.28529   0.87363   0.94283  -0.29187
N          N       0.12933   0.32425   0.78477  -0.28924
N          N       0.15476   0.21260   0.81517  -0.28597
N          N       0.04106   0.24648   0.82960  -0.28897
N          N       0.12070   0.28763   0.94261  -0.28727
N          N       0.67519   0.12854   0.78456  -0.28721
N          N       0.78752   0.15409   0.81630  -0.28600
N          N       0.75359   0.04094   0.83651  -0.28877
N          N       0.71171   0.12216   0.94239  -0.29220
N          N       0.87156   0.67531   0.78418  -0.28802
N          N       0.84557   0.78756   0.81509  -0.28829
N          N       0.95865   0.75365   0.83792  -0.28676
N          N       0.87271   0.71490   0.94247  -0.29140
N          N       0.67516   0.87102   0.78516  -0.28634
N          N       0.78761   0.84585   0.81560  -0.28750
N          N       0.75364   0.95876   0.83715  -0.28544
N          N       0.71541   0.87398   0.94355  -0.29228
N          N       0.12848   0.67576   0.78366  -0.28848
N          N       0.15356   0.78812   0.81628  -0.28634
N          N       0.04088   0.75372   0.83737  -0.28789
N          N       0.12397   0.71219   0.94238  -0.29293
N          N       0.32468   0.12863   0.78437  -0.28748
N          N       0.21244   0.15399   0.81533  -0.28753
N          N       0.24682   0.04095   0.83872  -0.28579
N          N       0.28547   0.12618   0.94237  -0.29296
N          N       0.87098   0.32502   0.78486  -0.28826
N          N       0.84461   0.21330   0.81481  -0.28530
N          N       0.95877   0.24682   0.82862  -0.28897
N          N       0.87962   0.28815   0.94209  -0.28930
N          N       0.67579   0.12898   0.21595  -0.28959
N          N       0.78710   0.15479   0.18491  -0.28502
N          N       0.75287   0.04103   0.16940  -0.28756
N          N       0.71177   0.12215   0.05745  -0.28968
N          N       0.87161   0.67572   0.21637  -0.28910
N          N       0.84617   0.78768   0.18580  -0.28953
N          N       0.95892   0.75378   0.16125  -0.28569
N          N       0.87276   0.71500   0.05750  -0.29072
N          N       0.32485   0.87085   0.21541  -0.28746
N          N       0.21308   0.84494   0.18659  -0.28851
N          N       0.24728   0.95884   0.16872  -0.28600
N          N       0.28486   0.87377   0.05785  -0.29078
N          N       0.12930   0.32511   0.21477  -0.28775
N          N       0.15540   0.21344   0.18656  -0.28742
N          N       0.04126   0.24696   0.17129  -0.29010
N          N       0.12066   0.28765   0.05767  -0.28707
N          N       0.82497   0.62861   0.71515  -0.28708
N          N       0.71239   0.65438   0.68437  -0.28850
N          N       0.74573   0.54131   0.66509  -0.28893
N          N       0.78764   0.62236   0.55780  -0.29053
N          N       0.37119   0.82449   0.71575  -0.28704
N          N       0.34604   0.71238   0.68622  -0.28980
N          N       0.45886   0.74710   0.66149  -0.28599
N          N       0.37247   0.78483   0.55747  -0.29143
N          N       0.17590   0.37077   0.71584  -0.28975
N          N       0.28750   0.34538   0.68578  -0.28783
N          N       0.25237   0.45902   0.66808  -0.28737
N          N       0.21508   0.37386   0.55741  -0.29069
N          N       0.62848   0.17525   0.71558  -0.28767
N          N       0.65433   0.28755   0.68447  -0.28715
N          N       0.54116   0.25353   0.66364  -0.28572
N          N       0.62589   0.21465   0.55784  -0.29199
N          N       0.82445   0.37110   0.28409  -0.28894
N          N       0.71314   0.34503   0.31401  -0.28668
N          N       0.74725   0.45896   0.32967  -0.28856
N          N       0.78766   0.37784   0.44266  -0.28936
N          N       0.62796   0.82406   0.28415  -0.28833
N          N       0.65398   0.71227   0.31542  -0.28599
N          N       0.54107   0.74583   0.34024  -0.28471
N          N       0.62718   0.78519   0.44262  -0.29078
N          N       0.17511   0.62851   0.28479  -0.28710
N          N       0.28767   0.65414   0.31486  -0.28882
N          N       0.25373   0.54133   0.33867  -0.28590
N          N       0.21503   0.62665   0.44238  -0.29100
N          N       0.37104   0.17568   0.28462  -0.28963
N          N       0.34518   0.28743   0.31496  -0.28636
N          N       0.45884   0.25335   0.33136  -0.28863
N          N       0.37752   0.21238   0.44273  -0.28952
N          N       0.17580   0.37188   0.28376  -0.28849
N          N       0.28785   0.34638   0.31521  -0.28789
N          N       0.25388   0.45917   0.33918  -0.28615
N          N       0.21486   0.37387   0.44239  -0.29133
N          N       0.62928   0.17562   0.28460  -0.28959
N          N       0.65496   0.28687   0.31397  -0.28648
N          N       0.54113   0.25293   0.33163  -0.28748
N          N       0.62589   0.21499   0.44284  -0.28978
N          N       0.82508   0.62928   0.28553  -0.28716
N          N       0.71322   0.65524   0.31461  -0.28510
N          N       0.74731   0.54121   0.32965  -0.28877
N          N       0.78760   0.62238   0.44277  -0.28954
N          N       0.37173   0.82412   0.28418  -0.28842
N          N       0.34619   0.71186   0.31529  -0.28805
N          N       0.45886   0.74568   0.34025  -0.28474
N          N       0.37263   0.78479   0.44247  -0.29068
N          N       0.17513   0.62958   0.71457  -0.28942
N          N       0.28712   0.65497   0.68690  -0.28900
N          N       0.25215   0.54128   0.66841  -0.28643
N          N       0.21534   0.62666   0.55739  -0.29042
N          N       0.37132   0.17514   0.71545  -0.28643
N          N       0.34609   0.28765   0.68499  -0.28864
N          N       0.45896   0.25337   0.66443  -0.28724
N          N       0.37740   0.21229   0.55775  -0.29051
N          N       0.82438   0.37179   0.71582  -0.28777
N          N       0.71207   0.34607   0.68377  -0.28790
N          N       0.74550   0.45912   0.66435  -0.28967
N          N       0.78772   0.37800   0.55771  -0.29180
N          N       0.62856   0.82457   0.71581  -0.28758
N          N       0.65408   0.71235   0.68460  -0.28835
N          N       0.54107   0.74702   0.66123  -0.28575
N          N       0.62724   0.78535   0.55760  -0.29208

