data_crystal

_cell_length_a 18.70700
_cell_length_b 10.18200
_cell_length_c 20.35300
_cell_angle_alpha 90.00000
_cell_angle_beta  90.00000
_cell_angle_gamma 90.00000

_symmetry_space_group_name_	'P 1'
_symmetry_space_group_name_H-M	'P 1'

loop_
_symmetry_equiv_pos_as_xyz
  x,y,z

loop_
_atom_site_label
_atom_site_type_symbol
_atom_site_fract_x
_atom_site_fract_y
_atom_site_fract_z
_atom_site_charge
C 	C 	0.57841 0.62240 0.43932 0.38600
C 	C 	0.61453 0.74040 0.41151 -0.06600
C 	C 	0.58594 0.86450 0.42217 -0.01500
H 	H 	0.54610 0.87430 0.44900 0.06000
C 	C 	0.61630 0.97270 0.39322 -0.03100
C 	C 	0.67682 0.95990 0.35374 -0.10500
H 	H 	0.69750 0.03370 0.33460 0.09100
C 	C 	0.70610 0.83580 0.34317 0.14100
C 	C 	0.67462 0.72630 0.37109 -0.09500
H 	H 	0.69340 0.64320 0.36300 0.08200
C 	C 	0.58766 0.10810 0.40525 0.28700
C 	C 	0.77333 0.88850 0.24599 0.22100
C 	C 	0.91571 0.96270 0.12178 0.05300
H 	H 	0.92410 0.02720 0.09040 -0.00800
C 	C 	0.85544 0.97030 0.16169 -0.09100
H 	H 	0.82340 0.03930 0.15650 0.07900
C 	C 	0.84305 0.87560 0.20905 0.00500
C 	C 	0.89126 0.77200 0.21630 -0.08800
H 	H 	0.88360 0.70780 0.24800 0.07500
C 	C 	0.95082 0.76570 0.17576 0.05200
H 	H 	0.98300 0.69670 0.18050 0.02000
N 	N 	0.76784 0.82270 0.30326 -0.24900
H 	H 	0.80210 0.77230 0.31570 0.15700
N 	N 	0.96302 0.86000 0.12865 -0.19700
Ni	Ni	0.45082 0.66328 0.55143 1.07300
O 	O 	0.60166 0.51163 0.42456 -0.42800
O 	O 	0.52552 0.63889 0.47548 -0.45500
O 	O 	0.53322 0.11926 0.44064 -0.35600
O 	O 	0.61750 0.20601 0.38105 -0.36800
O 	O 	0.72645 0.95470 0.22332 -0.23400
C 	C 	0.42159 0.37760 0.56068 0.38700
C 	C 	0.38547 0.25960 0.58849 -0.06500
C 	C 	0.41406 0.13550 0.57783 -0.01400
H 	H 	0.45390 0.12570 0.55100 0.06100
C 	C 	0.38370 0.02730 0.60678 -0.03000
C 	C 	0.32318 0.04010 0.64626 -0.10400
H 	H 	0.30250 0.96630 0.66540 0.09100
C 	C 	0.29390 0.16420 0.65683 0.14100
C 	C 	0.32538 0.27370 0.62891 -0.09500
H 	H 	0.30660 0.35680 0.63700 0.08200
C 	C 	0.41234 0.89190 0.59475 0.28700
C 	C 	0.22667 0.11150 0.75401 0.22100
C 	C 	0.08429 0.03730 0.87822 0.05300
H 	H 	0.07590 0.97280 0.90960 -0.00800
C 	C 	0.14456 0.02970 0.83831 -0.09100
H 	H 	0.17660 0.96070 0.84350 0.07900
C 	C 	0.15695 0.12440 0.79095 0.00500
C 	C 	0.10874 0.22800 0.78370 -0.08800
H 	H 	0.11640 0.29220 0.75200 0.07500
C 	C 	0.04918 0.23430 0.82424 0.05200
H 	H 	0.01700 0.30330 0.81950 0.02000
N 	N 	0.23216 0.17730 0.69674 -0.24900
H 	H 	0.19790 0.22770 0.68430 0.15700
N 	N 	0.03698 0.14000 0.87135 -0.19700
Ni	Ni	0.54918 0.33672 0.44857 1.07300
O 	O 	0.39834 0.48837 0.57544 -0.42800
O 	O 	0.47448 0.36111 0.52452 -0.45500
O 	O 	0.46678 0.88074 0.55936 -0.35600
O 	O 	0.38250 0.79399 0.61895 -0.36800
O 	O 	0.27355 0.04530 0.77668 -0.23400
C 	C 	0.92159 0.87760 0.93932 0.38700
C 	C 	0.88547 0.75960 0.91151 -0.06500
C 	C 	0.91406 0.63550 0.92217 -0.01400
H 	H 	0.95390 0.62570 0.94900 0.06100
C 	C 	0.88370 0.52730 0.89322 -0.03000
C 	C 	0.82318 0.54010 0.85374 -0.10400
H 	H 	0.80250 0.46630 0.83460 0.09100
C 	C 	0.79390 0.66420 0.84317 0.14100
C 	C 	0.82538 0.77370 0.87109 -0.09500
H 	H 	0.80660 0.85680 0.86300 0.08200
C 	C 	0.91234 0.39190 0.90525 0.28700
C 	C 	0.72667 0.61150 0.74599 0.22100
C 	C 	0.58429 0.53730 0.62178 0.05400
H 	H 	0.57590 0.47280 0.59040 -0.00900
C 	C 	0.64456 0.52970 0.66169 -0.09100
H 	H 	0.67660 0.46070 0.65650 0.07800
C 	C 	0.65695 0.62440 0.70905 0.00500
C 	C 	0.60874 0.72800 0.71630 -0.08800
H 	H 	0.61640 0.79220 0.74800 0.07500
C 	C 	0.54918 0.73430 0.67576 0.05200
H 	H 	0.51700 0.80330 0.68050 0.02000
N 	N 	0.73216 0.67730 0.80326 -0.24900
H 	H 	0.69790 0.72770 0.81570 0.15700
N 	N 	0.53698 0.64000 0.62865 -0.19700
Ni	Ni	0.04918 0.83672 0.05143 1.07300
O 	O 	0.89834 0.98837 0.92456 -0.42800
O 	O 	0.97448 0.86111 0.97548 -0.45500
O 	O 	0.96678 0.38074 0.94064 -0.35700
O 	O 	0.88250 0.29399 0.88105 -0.36800
O 	O 	0.77355 0.54530 0.72332 -0.23300
C 	C 	0.07841 0.12240 0.06068 0.38700
C 	C 	0.11453 0.24040 0.08849 -0.06500
C 	C 	0.08594 0.36450 0.07783 -0.01400
H 	H 	0.04610 0.37430 0.05100 0.06100
C 	C 	0.11630 0.47270 0.10678 -0.03000
C 	C 	0.17682 0.45990 0.14626 -0.10400
H 	H 	0.19750 0.53370 0.16540 0.09100
C 	C 	0.20610 0.33580 0.15683 0.14100
C 	C 	0.17462 0.22630 0.12891 -0.09500
H 	H 	0.19340 0.14320 0.13700 0.08200
C 	C 	0.08766 0.60810 0.09475 0.28700
C 	C 	0.27333 0.38850 0.25401 0.22100
C 	C 	0.41571 0.46270 0.37822 0.05400
H 	H 	0.42410 0.52720 0.40960 -0.00900
C 	C 	0.35544 0.47030 0.33831 -0.09100
H 	H 	0.32340 0.53930 0.34350 0.07800
C 	C 	0.34305 0.37560 0.29095 0.00500
C 	C 	0.39126 0.27200 0.28370 -0.08800
H 	H 	0.38360 0.20780 0.25200 0.07500
C 	C 	0.45082 0.26570 0.32424 0.05200
H 	H 	0.48300 0.19670 0.31950 0.02000
N 	N 	0.26784 0.32270 0.19674 -0.24900
H 	H 	0.30210 0.27230 0.18430 0.15700
N 	N 	0.46302 0.36000 0.37135 -0.19700
Ni	Ni	0.95082 0.16328 0.94857 1.07300
O 	O 	0.10166 0.01163 0.07544 -0.42800
O 	O 	0.02552 0.13889 0.02452 -0.45500
O 	O 	0.03322 0.61926 0.05936 -0.35700
O 	O 	0.11750 0.70601 0.11895 -0.36800
O 	O 	0.22645 0.45470 0.27668 -0.23300
C 	C 	0.42159 0.62240 0.06068 0.38700
C 	C 	0.38547 0.74040 0.08849 -0.06500
C 	C 	0.41406 0.86450 0.07783 -0.01400
H 	H 	0.45390 0.87430 0.05100 0.06000
C 	C 	0.38370 0.97270 0.10678 -0.03100
C 	C 	0.32318 0.95990 0.14626 -0.10500
H 	H 	0.30250 0.03370 0.16540 0.09100
C 	C 	0.29390 0.83580 0.15683 0.14100
C 	C 	0.32538 0.72630 0.12891 -0.09500
H 	H 	0.30660 0.64320 0.13700 0.08200
C 	C 	0.41234 0.10810 0.09475 0.28800
C 	C 	0.22667 0.88850 0.25401 0.22100
C 	C 	0.08429 0.96270 0.37822 0.05400
H 	H 	0.07590 0.02720 0.40960 -0.00900
C 	C 	0.14456 0.97030 0.33831 -0.09100
H 	H 	0.17660 0.03930 0.34350 0.07800
C 	C 	0.15695 0.87560 0.29095 0.00500
C 	C 	0.10874 0.77200 0.28370 -0.08800
H 	H 	0.11640 0.70780 0.25200 0.07500
C 	C 	0.04918 0.76570 0.32424 0.05200
H 	H 	0.01700 0.69670 0.31950 0.01900
N 	N 	0.23216 0.82270 0.19674 -0.24900
H 	H 	0.19790 0.77230 0.18430 0.15700
N 	N 	0.03698 0.86000 0.37135 -0.19700
Ni	Ni	0.54918 0.66328 0.94857 1.07300
O 	O 	0.39834 0.51163 0.07544 -0.42800
O 	O 	0.47448 0.63889 0.02452 -0.45500
O 	O 	0.46678 0.11926 0.05936 -0.35600
O 	O 	0.38250 0.20601 0.11895 -0.36800
O 	O 	0.27355 0.95470 0.27668 -0.23400
C 	C 	0.57841 0.37760 0.93932 0.38700
C 	C 	0.61453 0.25960 0.91151 -0.06500
C 	C 	0.58594 0.13550 0.92217 -0.01400
H 	H 	0.54610 0.12570 0.94900 0.06000
C 	C 	0.61630 0.02730 0.89322 -0.03100
C 	C 	0.67682 0.04010 0.85374 -0.10500
H 	H 	0.69750 0.96630 0.83460 0.09100
C 	C 	0.70610 0.16420 0.84317 0.14100
C 	C 	0.67462 0.27370 0.87109 -0.09500
H 	H 	0.69340 0.35680 0.86300 0.08200
C 	C 	0.58766 0.89190 0.90525 0.28800
C 	C 	0.77333 0.11150 0.74599 0.22100
C 	C 	0.91571 0.03730 0.62178 0.05400
H 	H 	0.92410 0.97280 0.59040 -0.00900
C 	C 	0.85544 0.02970 0.66169 -0.09100
H 	H 	0.82340 0.96070 0.65650 0.07800
C 	C 	0.84305 0.12440 0.70905 0.00500
C 	C 	0.89126 0.22800 0.71630 -0.08800
H 	H 	0.88360 0.29220 0.74800 0.07500
C 	C 	0.95082 0.23430 0.67576 0.05200
H 	H 	0.98300 0.30330 0.68050 0.01900
N 	N 	0.76784 0.17730 0.80326 -0.24900
H 	H 	0.80210 0.22770 0.81570 0.15700
N 	N 	0.96302 0.14000 0.62865 -0.19700
Ni	Ni	0.45082 0.33672 0.05143 1.07300
O 	O 	0.60166 0.48837 0.92456 -0.42800
O 	O 	0.52552 0.36111 0.97548 -0.45500
O 	O 	0.53322 0.88074 0.94064 -0.35600
O 	O 	0.61750 0.79399 0.88105 -0.36800
O 	O 	0.72645 0.04530 0.72332 -0.23400
C 	C 	0.07841 0.87760 0.56068 0.38700
C 	C 	0.11453 0.75960 0.58849 -0.06500
C 	C 	0.08594 0.63550 0.57783 -0.01400
H 	H 	0.04610 0.62570 0.55100 0.06100
C 	C 	0.11630 0.52730 0.60678 -0.03000
C 	C 	0.17682 0.54010 0.64626 -0.10400
H 	H 	0.19750 0.46630 0.66540 0.09100
C 	C 	0.20610 0.66420 0.65683 0.14100
C 	C 	0.17462 0.77370 0.62891 -0.09500
H 	H 	0.19340 0.85680 0.63700 0.08200
C 	C 	0.08766 0.39190 0.59475 0.28700
C 	C 	0.27333 0.61150 0.75401 0.22100
C 	C 	0.41571 0.53730 0.87822 0.05400
H 	H 	0.42410 0.47280 0.90960 -0.00900
C 	C 	0.35544 0.52970 0.83831 -0.09100
H 	H 	0.32340 0.46070 0.84350 0.07800
C 	C 	0.34305 0.62440 0.79095 0.00500
C 	C 	0.39126 0.72800 0.78370 -0.08800
H 	H 	0.38360 0.79220 0.75200 0.07500
C 	C 	0.45082 0.73430 0.82424 0.05200
H 	H 	0.48300 0.80330 0.81950 0.02000
N 	N 	0.26784 0.67730 0.69674 -0.24900
H 	H 	0.30210 0.72770 0.68430 0.15700
N 	N 	0.46302 0.64000 0.87135 -0.19700
Ni	Ni	0.95082 0.83672 0.44857 1.07300
O 	O 	0.10166 0.98837 0.57544 -0.42800
O 	O 	0.02552 0.86111 0.52452 -0.45500
O 	O 	0.03322 0.38074 0.55936 -0.35600
O 	O 	0.11750 0.29399 0.61895 -0.36800
O 	O 	0.22645 0.54530 0.77668 -0.23300
C 	C 	0.92159 0.12240 0.43932 0.38700
C 	C 	0.88547 0.24040 0.41151 -0.06500
C 	C 	0.91406 0.36450 0.42217 -0.01400
H 	H 	0.95390 0.37430 0.44900 0.06100
C 	C 	0.88370 0.47270 0.39322 -0.03000
C 	C 	0.82318 0.45990 0.35374 -0.10400
H 	H 	0.80250 0.53370 0.33460 0.09100
C 	C 	0.79390 0.33580 0.34317 0.14100
C 	C 	0.82538 0.22630 0.37109 -0.09500
H 	H 	0.80660 0.14320 0.36300 0.08200
C 	C 	0.91234 0.60810 0.40525 0.28700
C 	C 	0.72667 0.38850 0.24599 0.22100
C 	C 	0.58429 0.46270 0.12178 0.05400
H 	H 	0.57590 0.52720 0.09040 -0.00900
C 	C 	0.64456 0.47030 0.16169 -0.09100
H 	H 	0.67660 0.53930 0.15650 0.07800
C 	C 	0.65695 0.37560 0.20905 0.00500
C 	C 	0.60874 0.27200 0.21630 -0.08800
H 	H 	0.61640 0.20780 0.24800 0.07500
C 	C 	0.54918 0.26570 0.17576 0.05200
H 	H 	0.51700 0.19670 0.18050 0.02000
N 	N 	0.73216 0.32270 0.30326 -0.24900
H 	H 	0.69790 0.27230 0.31570 0.15700
N 	N 	0.53698 0.36000 0.12865 -0.19700
Ni	Ni	0.04918 0.16328 0.55143 1.07300
O 	O 	0.89834 0.01163 0.42456 -0.42800
O 	O 	0.97448 0.13889 0.47548 -0.45500
O 	O 	0.96678 0.61926 0.44064 -0.35600
O 	O 	0.88250 0.70601 0.38105 -0.36800
O 	O 	0.77355 0.45470 0.22332 -0.23300
