data_crystal

_cell_length_a 9.80350
_cell_length_b 10.94230
_cell_length_c 19.42890
_cell_angle_alpha 85.59600
_cell_angle_beta  75.68600
_cell_angle_gamma 63.62200

_symmetry_space_group_name_	'P 1'
_symmetry_space_group_name_H-M	'P 1'

loop_
_symmetry_equiv_pos_as_xyz
  x,y,z

loop_
_atom_site_label
_atom_site_type_symbol
_atom_site_fract_x
_atom_site_fract_y
_atom_site_fract_z
_atom_site_charge
Nd	Nd	0.71004 0.02729 0.50041 2.21400
Nd	Nd	0.24949 0.48030 0.99082 2.20100
S 	S 	0.29900 0.52630 0.46973 0.06900
S 	S 	0.33770 0.22280 0.76153 0.07000
S 	S 	0.70440 0.98360 0.96794 0.09200
O 	O 	0.53300 0.11320 0.61920 -0.51200
O 	O 	0.49230 0.27920 0.98850 -0.56700
O 	O 	0.23420 0.34120 0.90390 -0.54200
O 	O 	0.31450 0.16950 0.44830 -0.56800
O 	O 	0.98080 0.88400 0.43640 -0.56500
O 	O 	0.19880 0.81510 0.47590 -0.58300
O 	O 	0.08880 0.64200 0.91930 -0.56200
O 	O 	0.48210 0.23060 0.48000 -0.53900
O 	O 	0.98650 0.37100 0.92690 -0.57500
O 	O 	0.83680 0.68160 0.94220 -0.53400
C 	C 	0.10190 0.79330 0.45330 0.47900
C 	C 	0.94430 0.71940 0.93250 0.49400
C 	C 	0.05790 0.59280 0.41880 0.00800
H 	H 	0.96780 0.64390 0.40250 0.01800
C 	C 	0.15550 0.26880 0.81720 -0.16600
C 	C 	0.89710 0.86850 0.93650 -0.16800
C 	C 	0.40210 0.11200 0.62600 0.48700
C 	C 	0.63100 0.25810 0.98410 0.49900
C 	C 	0.12900 0.44880 0.41960 0.00300
H 	H 	0.09150 0.39410 0.40400 0.01900
C 	C 	0.26030 0.39930 0.44630 -0.15700
C 	C 	0.13630 0.64910 0.44460 -0.17000
C 	C 	0.36080 0.25460 0.45940 0.49000
C 	C 	0.28690 0.16720 0.69630 -0.15000
C 	C 	0.13530 0.18300 0.71710 -0.00700
H 	H 	0.08800 0.15710 0.68880 0.01900
C 	C 	0.75450 0.11730 0.96170 -0.16300
C 	C 	0.05890 0.24280 0.78630 0.01300
H 	H 	0.95550 0.26220 0.80830 0.00700
C 	C 	0.12180 0.33240 0.88820 0.50400
O 	O 	0.67220 0.34580 0.99670 -0.61400
C 	C 	0.99370 0.93200 0.92090 0.04400
H 	H 	0.10150 0.88610 0.90260 0.00300
C 	C 	0.91260 0.07440 0.93540 -0.01800
H 	H 	0.96070 0.13240 0.92800 0.03400
O 	O 	0.36250 0.06620 0.58240 -0.60900
Nd	Nd	0.28996 0.97271 0.49959 2.21500
Nd	Nd	0.75051 0.51970 0.00918 2.20200
S 	S 	0.70100 0.47370 0.53027 0.07000
S 	S 	0.66230 0.77720 0.23847 0.07100
S 	S 	0.29560 0.01640 0.03206 0.09200
O 	O 	0.46700 0.88680 0.38080 -0.51200
O 	O 	0.50770 0.72080 0.01150 -0.56700
O 	O 	0.76580 0.65880 0.09610 -0.54200
O 	O 	0.68550 0.83050 0.55170 -0.56800
O 	O 	0.01920 0.11600 0.56360 -0.56500
O 	O 	0.80120 0.18490 0.52410 -0.58300
O 	O 	0.91120 0.35800 0.08070 -0.56200
O 	O 	0.51790 0.76940 0.52000 -0.53900
O 	O 	0.01350 0.62900 0.07310 -0.57500
O 	O 	0.16320 0.31840 0.05780 -0.53400
C 	C 	0.89810 0.20670 0.54670 0.47900
C 	C 	0.05570 0.28060 0.06750 0.49400
C 	C 	0.94210 0.40720 0.58120 0.00800
H 	H 	0.03220 0.35610 0.59750 0.01800
C 	C 	0.84450 0.73120 0.18280 -0.16600
C 	C 	0.10290 0.13150 0.06350 -0.16800
C 	C 	0.59790 0.88800 0.37400 0.48700
C 	C 	0.36900 0.74190 0.01590 0.49900
C 	C 	0.87100 0.55120 0.58040 0.00300
H 	H 	0.90850 0.60590 0.59600 0.01900
C 	C 	0.73970 0.60070 0.55370 -0.15700
C 	C 	0.86370 0.35090 0.55540 -0.17000
C 	C 	0.63920 0.74540 0.54060 0.49000
C 	C 	0.71310 0.83280 0.30370 -0.15000
C 	C 	0.86470 0.81700 0.28290 -0.00700
H 	H 	0.91200 0.84290 0.31120 0.01900
C 	C 	0.24550 0.88270 0.03830 -0.16300
C 	C 	0.94110 0.75720 0.21370 0.01300
H 	H 	0.04450 0.73780 0.19170 0.00700
C 	C 	0.87820 0.66760 0.11180 0.50400
O 	O 	0.32780 0.65420 0.00330 -0.61400
C 	C 	0.00630 0.06800 0.07910 0.04400
H 	H 	0.89850 0.11390 0.09740 0.00300
C 	C 	0.08740 0.92560 0.06460 -0.01800
H 	H 	0.03930 0.86760 0.07200 0.03400
O 	O 	0.63750 0.93380 0.41760 -0.60900
