data_crystal

_cell_length_a 12.16870
_cell_length_b 13.94300
_cell_length_c 18.25010
_cell_angle_alpha 90.00000
_cell_angle_beta  90.00000
_cell_angle_gamma 113.16900

_symmetry_space_group_name_	'P 1'
_symmetry_space_group_name_H-M	'P 1'

loop_
_symmetry_equiv_pos_as_xyz
  x,y,z

loop_
_atom_site_label
_atom_site_type_symbol
_atom_site_fract_x
_atom_site_fract_y
_atom_site_fract_z
_atom_site_charge
Mn	Mn	0.32687 0.58237 0.51938 1.23900
Mn	Mn	0.17313 0.41763 0.01938 1.22300
Mn	Mn	0.67313 0.41763 0.48062 1.24000
Mn	Mn	0.82687 0.58237 0.98062 1.25600
Mn	Mn	0.00000 0.50000 0.50000 1.30200
Mn	Mn	0.50000 0.50000 -0.00000 1.29500
H 	H 	0.34610 0.79200 0.70160 0.02100
H 	H 	0.36610 0.93700 0.77200 0.05300
H 	H 	0.05480 0.93150 0.69000 0.05000
H 	H 	0.03120 0.78310 0.62250 0.02800
H 	H 	0.06020 0.01440 0.80630 0.06400
H 	H 	0.09390 0.16760 0.87070 0.01600
H 	H 	0.44540 0.27530 0.82100 0.02200
H 	H 	0.41340 0.12120 0.75820 0.06800
H 	H 	0.24950 0.24740 0.41660 0.04500
H 	H 	0.15730 0.06660 0.42290 0.02200
H 	H 	0.91270 0.08970 0.56390 0.00500
H 	H 	0.99980 0.27040 0.55360 0.10100
H 	H 	0.15390 0.20800 0.20160 0.01100
H 	H 	0.13390 0.06300 0.27200 0.06000
H 	H 	0.44520 0.06850 0.19000 0.06600
H 	H 	0.46880 0.21690 0.12250 0.02600
H 	H 	0.43980 0.98560 0.30630 0.05400
H 	H 	0.40610 0.83240 0.37070 0.01800
H 	H 	0.05460 0.72470 0.32100 0.02000
H 	H 	0.08660 0.87880 0.25820 0.05100
H 	H 	0.25050 0.75260 0.91660 0.00200
H 	H 	0.34270 0.93340 0.92290 0.08100
H 	H 	0.58730 0.91030 0.06390 0.08800
H 	H 	0.50020 0.72960 0.05360 0.02200
H 	H 	0.65390 0.20800 0.29840 0.01900
H 	H 	0.63390 0.06300 0.22800 0.06300
H 	H 	0.94520 0.06850 0.31000 0.07300
H 	H 	0.96880 0.21690 0.37750 0.03900
H 	H 	0.93980 0.98560 0.19370 0.06000
H 	H 	0.90610 0.83240 0.12930 0.01800
H 	H 	0.55460 0.72470 0.17900 0.02300
H 	H 	0.58660 0.87880 0.24180 0.05800
H 	H 	0.75050 0.75260 0.58340 -0.01600
H 	H 	0.84270 0.93340 0.57710 0.09700
H 	H 	0.08730 0.91030 0.43610 0.12100
H 	H 	0.00020 0.72960 0.44640 -0.04400
H 	H 	0.84610 0.79200 0.79840 0.02800
H 	H 	0.86610 0.93700 0.72800 0.05600
H 	H 	0.55480 0.93150 0.81000 0.05500
H 	H 	0.53120 0.78310 0.87750 0.04000
H 	H 	0.56020 0.01440 0.69370 0.06900
H 	H 	0.59390 0.16760 0.62930 0.01500
H 	H 	0.94540 0.27530 0.67900 0.02400
H 	H 	0.91340 0.12120 0.74180 0.07500
H 	H 	0.74950 0.24740 0.08340 0.02700
H 	H 	0.65730 0.06660 0.07710 0.03800
H 	H 	0.41270 0.08970 0.93610 0.03800
H 	H 	0.49980 0.27040 0.94640 0.03600
C 	C 	0.18765 0.77397 0.65357 -0.12600
C 	C 	0.28675 0.82023 0.69904 0.03200
C 	C 	0.29900 0.90720 0.74058 -0.09900
C 	C 	0.21450 0.95165 0.73702 0.01500
C 	C 	0.11438 0.90351 0.69246 -0.09500
C 	C 	0.10063 0.81542 0.65182 0.02900
C 	C 	0.23381 0.05018 0.77679 0.05400
C 	C 	0.13901 0.06641 0.80991 -0.11900
C 	C 	0.15920 0.15802 0.84813 0.04800
C 	C 	0.27306 0.23570 0.85392 -0.13300
C 	C 	0.36733 0.22172 0.81901 0.04500
C 	C 	0.34799 0.12996 0.78130 -0.11800
C 	C 	0.17742 0.68225 0.60550 0.40100
C 	C 	0.29465 0.33080 0.90136 0.39600
C 	C 	0.13449 0.27699 0.48539 -0.03900
C 	C 	0.18068 0.21549 0.44646 -0.06000
C 	C 	0.12644 0.10765 0.45114 0.00100
C 	C 	0.02779 0.05798 0.49620 -0.11900
C 	C 	0.98128 0.12123 0.53384 0.08300
C 	C 	0.03352 0.22909 0.52807 -0.14300
C 	C 	0.19669 0.39292 0.48526 0.31000
C 	C 	0.31235 0.22603 0.15357 -0.13900
C 	C 	0.21325 0.17977 0.19904 0.04500
C 	C 	0.20100 0.09280 0.24058 -0.12000
C 	C 	0.28550 0.04835 0.23702 0.05000
C 	C 	0.38562 0.09649 0.19246 -0.11600
C 	C 	0.39937 0.18458 0.15182 0.04300
C 	C 	0.26619 0.94982 0.27679 0.01700
C 	C 	0.36099 0.93359 0.30991 -0.10300
C 	C 	0.34080 0.84198 0.34813 0.03400
C 	C 	0.22694 0.76430 0.35392 -0.12900
C 	C 	0.13267 0.77828 0.31901 0.03100
C 	C 	0.15201 0.87004 0.28130 -0.10400
C 	C 	0.32258 0.31775 0.10550 0.40300
C 	C 	0.20535 0.66920 0.40136 0.39500
C 	C 	0.36551 0.72301 0.98539 -0.12300
C 	C 	0.31932 0.78451 0.94646 0.07100
C 	C 	0.37356 0.89235 0.95114 -0.16600
C 	C 	0.47221 0.94202 0.99620 0.15800
C 	C 	0.51872 0.87877 0.03384 -0.19500
C 	C 	0.46648 0.77091 0.02807 0.03100
C 	C 	0.30331 0.60708 0.98526 0.39400
C 	C 	0.81235 0.22603 0.34643 -0.12800
C 	C 	0.71325 0.17977 0.30096 0.04400
C 	C 	0.70100 0.09280 0.25942 -0.11400
C 	C 	0.78550 0.04835 0.26298 0.05100
C 	C 	0.88562 0.09649 0.30754 -0.10800
C 	C 	0.89937 0.18458 0.34818 0.04200
C 	C 	0.76619 0.94982 0.22321 0.02200
C 	C 	0.86099 0.93359 0.19009 -0.10400
C 	C 	0.84080 0.84198 0.15187 0.03800
C 	C 	0.72694 0.76430 0.14608 -0.13000
C 	C 	0.63267 0.77828 0.18099 0.03500
C 	C 	0.65201 0.87004 0.21870 -0.10400
C 	C 	0.82258 0.31775 0.39450 0.40100
C 	C 	0.70535 0.66920 0.09864 0.39500
C 	C 	0.86551 0.72301 0.51461 -0.21900
C 	C 	0.81932 0.78451 0.55354 0.13100
C 	C 	0.87356 0.89235 0.54886 -0.21600
C 	C 	0.97221 0.94202 0.50380 0.19100
C 	C 	0.01872 0.87877 0.46616 -0.28500
C 	C 	0.96648 0.77091 0.47193 0.21100
C 	C 	0.80331 0.60708 0.51474 0.38100
C 	C 	0.68765 0.77397 0.84643 -0.11500
C 	C 	0.78675 0.82023 0.80096 0.02900
C 	C 	0.79900 0.90720 0.75942 -0.09200
C 	C 	0.71450 0.95165 0.76298 0.01300
C 	C 	0.61438 0.90351 0.80754 -0.08700
C 	C 	0.60063 0.81542 0.84818 0.02800
C 	C 	0.73381 0.05018 0.72321 0.06000
C 	C 	0.63901 0.06641 0.69009 -0.12200
C 	C 	0.65920 0.15802 0.65187 0.05200
C 	C 	0.77306 0.23570 0.64608 -0.13600
C 	C 	0.86733 0.22172 0.68099 0.04900
C 	C 	0.84799 0.12996 0.71870 -0.11900
C 	C 	0.67742 0.68225 0.89450 0.39800
C 	C 	0.79465 0.33080 0.59864 0.39700
C 	C 	0.63449 0.27699 0.01461 -0.13300
C 	C 	0.68068 0.21549 0.05354 -0.00000
C 	C 	0.62644 0.10765 0.04886 -0.04800
C 	C 	0.52779 0.05798 0.00380 -0.08600
C 	C 	0.48128 0.12123 0.96616 -0.00700
C 	C 	0.53352 0.22909 0.97193 0.03600
C 	C 	0.69669 0.39292 0.01474 0.29900
O 	O 	0.27341 0.67026 0.59499 -0.49600
O 	O 	0.07685 0.62702 0.58007 -0.44700
O 	O 	0.20268 0.33994 0.92583 -0.46400
O 	O 	0.40099 0.39108 0.91300 -0.42600
O 	O 	0.29999 0.43472 0.45986 -0.44800
O 	O 	0.14493 0.44682 0.51554 -0.53600
O 	O 	0.22659 0.32974 0.09499 -0.50700
O 	O 	0.42315 0.37298 0.08007 -0.45000
O 	O 	0.29732 0.66006 0.42583 -0.47900
O 	O 	0.09901 0.60892 0.41300 -0.44200
O 	O 	0.20001 0.56528 0.95986 -0.45800
O 	O 	0.35507 0.55318 0.01554 -0.58000
O 	O 	0.72659 0.32974 0.40501 -0.49300
O 	O 	0.92315 0.37298 0.41993 -0.43000
O 	O 	0.79732 0.66006 0.07417 -0.48800
O 	O 	0.59901 0.60892 0.08700 -0.44500
O 	O 	0.70001 0.56528 0.54014 -0.46400
O 	O 	0.85507 0.55318 0.48446 -0.53800
O 	O 	0.77341 0.67026 0.90501 -0.48200
O 	O 	0.57685 0.62702 0.91993 -0.42500
O 	O 	0.70268 0.33994 0.57417 -0.47600
O 	O 	0.90099 0.39108 0.58700 -0.43200
O 	O 	0.79999 0.43472 0.04014 -0.45200
O 	O 	0.64493 0.44682 0.98446 -0.49300
