data_crystal

_cell_length_a 13.94440
_cell_length_b 18.11870
_cell_length_c 12.07580
_cell_angle_alpha 90.00000
_cell_angle_beta  112.89400
_cell_angle_gamma 90.00000

_symmetry_space_group_name_	'P 1'
_symmetry_space_group_name_H-M	'P 1'

loop_
_symmetry_equiv_pos_as_xyz
  x,y,z

loop_
_atom_site_label
_atom_site_type_symbol
_atom_site_fract_x
_atom_site_fract_y
_atom_site_fract_z
_atom_site_charge
Mn	Mn	0.41865 0.51944 0.17075 1.23500
O 	O 	0.37305 0.58003 0.42353 -0.43900
O 	O 	0.33041 0.59542 0.22518 -0.49900
O 	O 	0.65771 0.92445 0.29888 -0.45600
O 	O 	0.60740 0.91190 0.09877 -0.43100
O 	O 	0.55330 0.51625 0.35394 -0.53800
O 	O 	0.56655 0.46024 0.19775 -0.46500
C 	C 	0.31791 0.60565 0.32196 0.39800
C 	C 	0.22611 0.65361 0.31178 -0.13200
C 	C 	0.18474 0.65153 0.39991 0.04100
H 	H 	0.21670 0.62290 0.46840 0.03100
C 	C 	0.09587 0.69200 0.38622 -0.11300
H 	H 	0.06840 0.68930 0.44500 0.06700
C 	C 	0.04736 0.73672 0.28522 0.04200
C 	C 	0.09204 0.74094 0.19966 -0.11900
H 	H 	0.06290 0.77210 0.13380 0.05800
C 	C 	0.17931 0.69923 0.21168 0.04100
H 	H 	0.20670 0.70170 0.15280 0.01100
C 	C 	0.66740 0.90005 0.20601 0.39000
C 	C 	0.76239 0.85285 0.22736 -0.12800
C 	C 	0.84056 0.84766 0.34254 0.04000
H 	H 	0.83130 0.87000 0.40690 0.02300
C 	C 	0.93220 0.80936 0.36191 -0.11200
H 	H 	0.98300 0.80590 0.43930 0.06500
C 	C 	0.94882 0.77598 0.26613 0.03200
C 	C 	0.86903 0.78000 0.15127 -0.11400
H 	H 	0.87790 0.75730 0.08680 0.05600
C 	C 	0.77669 0.81741 0.13229 0.03500
H 	H 	0.72420 0.81880 0.05570 0.01500
C 	C 	0.60770 0.48570 0.30210 0.34400
C 	C 	0.72342 0.48583 0.36443 -0.13000
C 	C 	0.77098 0.52897 0.46650 0.03400
H 	H 	0.73050 0.55420 0.49970 0.02800
C 	C 	0.87875 0.53453 0.51910 -0.10500
H 	H 	0.90940 0.56420 0.58650 0.06600
C 	C 	0.94229 0.49628 0.47256 0.03200
C 	C 	0.89280 0.45071 0.37255 -0.11300
H 	H 	0.93310 0.42290 0.34210 0.06000
C 	C 	0.78493 0.44611 0.31794 0.03600
H 	H 	0.75380 0.41660 0.25040 0.00900
Mn	Mn	0.58135 0.01944 0.32925 1.22300
O 	O 	0.62695 0.08003 0.07647 -0.46400
O 	O 	0.66959 0.09542 0.27482 -0.50500
O 	O 	0.34229 0.42445 0.20112 -0.48200
O 	O 	0.39260 0.41190 0.40123 -0.43700
O 	O 	0.44670 0.01625 0.14606 -0.58300
O 	O 	0.43345 0.96024 0.30225 -0.44400
C 	C 	0.68209 0.10565 0.17804 0.39600
C 	C 	0.77389 0.15361 0.18822 -0.13800
C 	C 	0.81526 0.15153 0.10009 0.03300
H 	H 	0.78330 0.12290 0.03160 0.01500
C 	C 	0.90413 0.19200 0.11378 -0.11200
H 	H 	0.93160 0.18930 0.05500 0.05100
C 	C 	0.95264 0.23672 0.21478 0.02400
C 	C 	0.90796 0.24094 0.30034 -0.11400
H 	H 	0.93710 0.27210 0.36620 0.06000
C 	C 	0.82069 0.19923 0.28832 0.03800
H 	H 	0.79330 0.20170 0.34720 0.01700
C 	C 	0.33260 0.40005 0.29399 0.39300
C 	C 	0.23761 0.35285 0.27264 -0.13800
C 	C 	0.15944 0.34766 0.15746 0.04500
H 	H 	0.16870 0.37000 0.09310 0.00600
C 	C 	0.06780 0.30936 0.13809 -0.12600
H 	H 	0.01700 0.30590 0.06070 0.05800
C 	C 	0.05118 0.27598 0.23387 0.04600
C 	C 	0.13097 0.28000 0.34873 -0.12500
H 	H 	0.12210 0.25730 0.41320 0.06900
C 	C 	0.22331 0.31741 0.36771 0.04500
H 	H 	0.27580 0.31880 0.44430 0.02000
C 	C 	0.39230 0.98570 0.19790 0.35700
C 	C 	0.27658 0.98583 0.13557 -0.00900
C 	C 	0.22902 0.02897 0.03350 -0.17500
H 	H 	0.26950 0.05420 0.00030 0.07400
C 	C 	0.12125 0.03453 0.98090 0.04100
H 	H 	0.09060 0.06420 0.91350 0.01700
C 	C 	0.05771 0.99628 0.02744 -0.03700
C 	C 	0.10720 0.95071 0.12745 -0.03000
H 	H 	0.06690 0.92290 0.15790 0.03600
C 	C 	0.21507 0.94611 0.18206 -0.05100
H 	H 	0.24620 0.91660 0.24960 0.04500
Mn	Mn	0.58135 0.48056 0.82925 1.24500
O 	O 	0.62695 0.41997 0.57647 -0.43700
O 	O 	0.66959 0.40458 0.77482 -0.48500
O 	O 	0.34229 0.07555 0.70112 -0.49100
O 	O 	0.39260 0.08810 0.90123 -0.42700
O 	O 	0.44670 0.48375 0.64606 -0.53500
O 	O 	0.43345 0.53976 0.80225 -0.44700
C 	C 	0.68209 0.39435 0.67804 0.39400
C 	C 	0.77389 0.34639 0.68822 -0.12100
C 	C 	0.81526 0.34847 0.60009 0.03000
H 	H 	0.78330 0.37710 0.53160 0.03500
C 	C 	0.90413 0.30800 0.61378 -0.09900
H 	H 	0.93160 0.31070 0.55500 0.06100
C 	C 	0.95264 0.26328 0.71478 0.02300
C 	C 	0.90796 0.25906 0.80034 -0.10400
H 	H 	0.93710 0.22790 0.86620 0.06600
C 	C 	0.82069 0.30077 0.78832 0.03500
H 	H 	0.79330 0.29830 0.84720 0.03000
C 	C 	0.33260 0.09995 0.79399 0.39100
C 	C 	0.23761 0.14715 0.77264 -0.13600
C 	C 	0.15944 0.15234 0.65746 0.05100
H 	H 	0.16870 0.13000 0.59310 0.00800
C 	C 	0.06780 0.19064 0.63809 -0.12900
H 	H 	0.01700 0.19410 0.56070 0.06900
C 	C 	0.05118 0.22402 0.73387 0.05500
C 	C 	0.13097 0.22000 0.84873 -0.12400
H 	H 	0.12210 0.24270 0.91320 0.08100
C 	C 	0.22331 0.18259 0.86771 0.05000
H 	H 	0.27580 0.18120 0.94430 0.02900
C 	C 	0.39230 0.51430 0.69790 0.34300
C 	C 	0.27658 0.51417 0.63557 -0.12700
C 	C 	0.22902 0.47103 0.53350 0.03700
H 	H 	0.26950 0.44580 0.50030 0.02700
C 	C 	0.12125 0.46547 0.48090 -0.11100
H 	H 	0.09060 0.43580 0.41350 0.06900
C 	C 	0.05771 0.50372 0.52744 0.04600
C 	C 	0.10720 0.54929 0.62745 -0.11500
H 	H 	0.06690 0.57710 0.65790 0.06700
C 	C 	0.21507 0.55389 0.68206 0.04000
H 	H 	0.24620 0.58340 0.74960 0.01800
Mn	Mn	0.41865 0.98056 0.67075 1.25700
O 	O 	0.37305 0.91997 0.92353 -0.40300
O 	O 	0.33041 0.90458 0.72518 -0.47900
O 	O 	0.65771 0.57555 0.79888 -0.46800
O 	O 	0.60740 0.58810 0.59877 -0.43500
O 	O 	0.55330 0.98375 0.85394 -0.48200
O 	O 	0.56655 0.03976 0.69775 -0.46600
C 	C 	0.31791 0.89435 0.82196 0.39400
C 	C 	0.22611 0.84639 0.81178 -0.11500
C 	C 	0.18474 0.84847 0.89991 0.03800
H 	H 	0.21670 0.87710 0.96840 0.04900
C 	C 	0.09587 0.80800 0.88622 -0.10200
H 	H 	0.06840 0.81070 0.94500 0.07600
C 	C 	0.04736 0.76328 0.78522 0.04200
C 	C 	0.09204 0.75906 0.69966 -0.11000
H 	H 	0.06290 0.72790 0.63380 0.06300
C 	C 	0.17931 0.80077 0.71168 0.03800
H 	H 	0.20670 0.79830 0.65280 0.02300
C 	C 	0.66740 0.59995 0.70601 0.39100
C 	C 	0.76239 0.64715 0.72736 -0.12800
C 	C 	0.84056 0.65234 0.84254 0.04600
H 	H 	0.83130 0.63000 0.90690 0.02400
C 	C 	0.93220 0.69064 0.86191 -0.11400
H 	H 	0.98300 0.69410 0.93930 0.07400
C 	C 	0.94882 0.72402 0.76613 0.04000
C 	C 	0.86903 0.72000 0.65127 -0.11400
H 	H 	0.87790 0.74270 0.58680 0.06700
C 	C 	0.77669 0.68259 0.63229 0.04200
H 	H 	0.72420 0.68120 0.55570 0.02200
C 	C 	0.60770 0.01430 0.80210 0.32700
C 	C 	0.72342 0.01417 0.86443 -0.22900
C 	C 	0.77098 0.97103 0.96650 0.21800
H 	H 	0.73050 0.94580 0.99970 -0.01000
C 	C 	0.87875 0.96547 0.01910 -0.23000
H 	H 	0.90940 0.93580 0.08650 0.11100
C 	C 	0.94229 0.00372 0.97256 0.10700
C 	C 	0.89280 0.04929 0.87255 -0.18800
H 	H 	0.93310 0.07710 0.84210 0.08700
C 	C 	0.78493 0.05389 0.81794 0.11500
H 	H 	0.75380 0.08340 0.75040 -0.01400
Mn	Mn	0.50000 0.50000 0.50000 1.31200
Mn	Mn	0.50000 0.00000 -0.00000 1.27800
