data_crystal

_cell_length_a 6.99700
_cell_length_b 25.48310
_cell_length_c 28.26420
_cell_angle_alpha 90.00000
_cell_angle_beta  92.71200
_cell_angle_gamma 90.00000

_symmetry_space_group_name_	'P 1'
_symmetry_space_group_name_H-M	'P 1'

loop_
_symmetry_equiv_pos_as_xyz
  x,y,z

loop_
_atom_site_label
_atom_site_type_symbol
_atom_site_fract_x
_atom_site_fract_y
_atom_site_fract_z
_atom_site_charge
Mn	Mn	0.20060 0.93068 0.24834 1.28900
Mn	Mn	0.65369 0.53332 0.73533 1.24800
O 	O 	0.87810 0.58410 0.76825 -0.55800
O 	O 	0.46770 0.89828 0.22233 -0.55300
O 	O 	0.53920 0.47257 0.20630 -0.53200
O 	O 	0.12430 0.62150 0.80406 -0.43000
O 	O 	0.20830 0.86440 0.18867 -0.39000
O 	O 	0.83330 0.01499 0.80837 -0.49500
C 	C 	0.99070 0.75930 0.04160 0.02100
C 	C 	0.06260 0.78620 0.95870 0.02800
O 	O 	0.54270 0.97950 0.80140 -0.49800
C 	C 	0.35540 0.71260 0.95820 0.02500
O 	O 	0.82840 0.50260 0.20308 -0.41900
C 	C 	0.28410 0.68680 0.04220 0.02500
C 	C 	0.09630 0.75360 0.00050 -0.01700
C 	C 	0.38420 0.86820 0.19080 0.37600
C 	C 	0.24600 0.71760 0.99900 -0.01900
C 	C 	0.71390 0.97960 0.81660 0.42600
C 	C 	0.50800 0.67490 0.96100 -0.03600
C 	C 	0.94870 0.61210 0.80120 0.40300
C 	C 	0.83120 0.63280 0.83960 -0.18300
C 	C 	0.02000 0.72720 0.08230 -0.05800
H 	H 	0.94020 0.72970 0.10760 0.05300
C 	C 	0.32760 0.74370 0.91640 -0.06600
H 	H 	0.40360 0.73990 0.89050 0.05900
C 	C 	0.44300 0.65080 0.03820 -0.03400
C 	C 	0.18250 0.68940 0.08320 -0.06800
H 	H 	0.21400 0.66880 0.10960 0.05700
C 	C 	0.80450 0.82480 0.12430 -0.17600
H 	H 	0.93740 0.82570 0.12750 0.10300
C 	C 	0.86160 0.86090 0.92040 0.10700
C 	C 	0.62200 0.66350 0.91750 0.10000
C 	C 	0.59130 0.54280 0.15360 -0.16900
C 	C 	0.91030 0.82220 0.96170 -0.04400
C 	C 	0.49470 0.61340 0.08080 0.09500
C 	C 	0.95290 0.93110 0.86770 0.11900
H 	H 	0.04820 0.95240 0.85630 -0.02300
C 	C 	0.16630 0.78310 0.91710 -0.06700
H 	H 	0.13650 0.80450 0.89110 0.05700
C 	C 	0.77280 0.93730 0.85120 -0.19700
C 	C 	0.69740 0.83950 0.16340 0.09000
H 	H 	0.75750 0.84760 0.19250 -0.00600
C 	C 	0.71890 0.80920 0.08180 0.11000
C 	C 	0.55150 0.64670 0.00030 -0.04100
H 	H 	0.65660 0.62430 0.00120 0.04900
C 	C 	0.50420 0.84130 0.15700 -0.18300
C 	C 	0.65380 0.50480 0.19040 0.39000
C 	C 	0.79790 0.82620 0.99920 -0.03600
H 	H 	0.69350 0.84880 0.99790 0.04400
C 	C 	0.53170 0.64760 0.87280 -0.17200
H 	H 	0.39890 0.64750 0.86930 0.10600
C 	C 	0.63690 0.63290 0.83570 0.11600
H 	H 	0.57500 0.62280 0.80730 -0.01100
C 	C 	0.92240 0.64820 0.88230 0.09800
H 	H 	0.05540 0.64820 0.88510 0.01300
C 	C 	0.63170 0.90470 0.86960 0.11400
H 	H 	0.50560 0.90830 0.85820 -0.00600
C 	C 	0.41990 0.82190 0.11430 0.10800
H 	H 	0.28740 0.81850 0.11190 0.00600
C 	C 	0.83820 0.79670 0.03930 -0.04200
C 	C 	0.67820 0.61120 0.09870 -0.16000
H 	H 	0.76840 0.63420 0.08730 0.08700
C 	C 	0.00100 0.89300 0.90170 -0.17900
H 	H 	0.12820 0.88900 0.91210 0.09000
C 	C 	0.35690 0.57990 0.09970 -0.15400
H 	H 	0.23070 0.58170 0.08790 0.08500
C 	C 	0.51920 0.80810 0.07700 -0.18300
H 	H 	0.45710 0.79790 0.04870 0.10000
C 	C 	0.82010 0.66350 0.92030 -0.16600
H 	H 	0.88480 0.67390 0.94820 0.09400
C 	C 	0.40650 0.54400 0.13600 0.08400
H 	H 	0.31530 0.52160 0.14770 -0.00500
C 	C 	0.67330 0.86860 0.90310 -0.18400
H 	H 	0.57550 0.84850 0.91500 0.09400
C 	C 	0.73320 0.57570 0.13340 0.08200
H 	H 	0.86110 0.57300 0.14370 0.01000
Mn	Mn	0.79940 0.43068 0.25166 1.29000
Mn	Mn	0.34631 0.03332 0.76467 1.24900
O 	O 	0.12190 0.08410 0.73175 -0.55800
O 	O 	0.53230 0.39828 0.27767 -0.55300
O 	O 	0.46080 0.97257 0.29370 -0.53200
O 	O 	0.87570 0.12150 0.69594 -0.43000
O 	O 	0.79170 0.36440 0.31133 -0.39000
O 	O 	0.16670 0.51499 0.69163 -0.49500
C 	C 	0.00930 0.25930 0.45840 0.02000
C 	C 	0.93740 0.28620 0.54130 0.02800
O 	O 	0.45730 0.47950 0.69860 -0.49900
C 	C 	0.64460 0.21260 0.54180 0.02500
O 	O 	0.17160 0.00260 0.29692 -0.41900
C 	C 	0.71590 0.18680 0.45780 0.02500
C 	C 	0.90370 0.25360 0.49950 -0.01700
C 	C 	0.61580 0.36820 0.30920 0.37600
C 	C 	0.75400 0.21760 0.50100 -0.01900
C 	C 	0.28610 0.47960 0.68340 0.42600
C 	C 	0.49200 0.17490 0.53900 -0.03600
C 	C 	0.05130 0.11210 0.69880 0.40300
C 	C 	0.16880 0.13280 0.66040 -0.18300
C 	C 	0.98000 0.22720 0.41770 -0.05800
H 	H 	0.05980 0.22970 0.39240 0.05300
C 	C 	0.67240 0.24370 0.58360 -0.06600
H 	H 	0.59640 0.23990 0.60950 0.05900
C 	C 	0.55700 0.15080 0.46180 -0.03400
C 	C 	0.81750 0.18940 0.41680 -0.06900
H 	H 	0.78600 0.16880 0.39040 0.05700
C 	C 	0.19550 0.32480 0.37570 -0.17600
H 	H 	0.06260 0.32570 0.37250 0.10300
C 	C 	0.13840 0.36090 0.57960 0.10800
C 	C 	0.37800 0.16350 0.58250 0.10000
C 	C 	0.40870 0.04280 0.34640 -0.16900
C 	C 	0.08970 0.32220 0.53830 -0.04400
C 	C 	0.50530 0.11340 0.41920 0.09500
C 	C 	0.04710 0.43110 0.63230 0.12100
H 	H 	0.95180 0.45240 0.64370 -0.02300
C 	C 	0.83370 0.28310 0.58290 -0.06700
H 	H 	0.86350 0.30450 0.60890 0.05600
C 	C 	0.22720 0.43730 0.64880 -0.19800
C 	C 	0.30260 0.33950 0.33660 0.09000
H 	H 	0.24250 0.34760 0.30750 -0.00600
C 	C 	0.28110 0.30920 0.41820 0.11000
C 	C 	0.44850 0.14670 0.49970 -0.04000
H 	H 	0.34340 0.12430 0.49880 0.04800
C 	C 	0.49580 0.34130 0.34300 -0.18300
C 	C 	0.34620 0.00480 0.30960 0.39000
C 	C 	0.20210 0.32620 0.50080 -0.03600
H 	H 	0.30650 0.34880 0.50210 0.04400
C 	C 	0.46830 0.14760 0.62720 -0.17200
H 	H 	0.60110 0.14750 0.63070 0.10600
C 	C 	0.36310 0.13290 0.66430 0.11600
H 	H 	0.42500 0.12280 0.69270 -0.01100
C 	C 	0.07760 0.14820 0.61770 0.09700
H 	H 	0.94460 0.14820 0.61490 0.01300
C 	C 	0.36830 0.40470 0.63040 0.11500
H 	H 	0.49440 0.40830 0.64180 -0.00700
C 	C 	0.58010 0.32190 0.38570 0.10800
H 	H 	0.71260 0.31850 0.38810 0.00600
C 	C 	0.16180 0.29670 0.46070 -0.04200
C 	C 	0.32180 0.11120 0.40130 -0.16000
H 	H 	0.23160 0.13420 0.41270 0.08700
C 	C 	0.99900 0.39300 0.59830 -0.18100
H 	H 	0.87180 0.38900 0.58790 0.09000
C 	C 	0.64310 0.07990 0.40030 -0.15400
H 	H 	0.76930 0.08170 0.41210 0.08500
C 	C 	0.48080 0.30810 0.42300 -0.18300
H 	H 	0.54290 0.29790 0.45130 0.10000
C 	C 	0.17990 0.16350 0.57970 -0.16600
H 	H 	0.11520 0.17390 0.55180 0.09400
C 	C 	0.59350 0.04400 0.36400 0.08400
H 	H 	0.68470 0.02160 0.35230 -0.00500
C 	C 	0.32670 0.36860 0.59690 -0.18500
H 	H 	0.42450 0.34850 0.58500 0.09400
C 	C 	0.26680 0.07570 0.36660 0.08300
H 	H 	0.13890 0.07300 0.35630 0.01000
Mn	Mn	0.79940 0.06932 0.75166 1.29000
Mn	Mn	0.34631 0.46668 0.26467 1.24900
O 	O 	0.12190 0.41590 0.23175 -0.55800
O 	O 	0.53230 0.10172 0.77767 -0.55300
O 	O 	0.46080 0.52743 0.79370 -0.53200
O 	O 	0.87570 0.37850 0.19594 -0.43000
O 	O 	0.79170 0.13560 0.81133 -0.39000
O 	O 	0.16670 0.98501 0.19163 -0.49500
C 	C 	0.00930 0.24070 0.95840 0.02100
C 	C 	0.93740 0.21380 0.04130 0.02800
O 	O 	0.45730 0.02050 0.19860 -0.49800
C 	C 	0.64460 0.28740 0.04180 0.02500
O 	O 	0.17160 0.49740 0.79692 -0.41900
C 	C 	0.71590 0.31320 0.95780 0.02500
C 	C 	0.90370 0.24640 0.99950 -0.01700
C 	C 	0.61580 0.13180 0.80920 0.37600
C 	C 	0.75400 0.28240 0.00100 -0.01900
C 	C 	0.28610 0.02040 0.18340 0.42600
C 	C 	0.49200 0.32510 0.03900 -0.03600
C 	C 	0.05130 0.38790 0.19880 0.40300
C 	C 	0.16880 0.36720 0.16040 -0.18300
C 	C 	0.98000 0.27280 0.91770 -0.05800
H 	H 	0.05980 0.27030 0.89240 0.05300
C 	C 	0.67240 0.25630 0.08360 -0.06600
H 	H 	0.59640 0.26010 0.10950 0.05900
C 	C 	0.55700 0.34920 0.96180 -0.03400
C 	C 	0.81750 0.31060 0.91680 -0.06800
H 	H 	0.78600 0.33120 0.89040 0.05700
C 	C 	0.19550 0.17520 0.87570 -0.17600
H 	H 	0.06260 0.17430 0.87250 0.10300
C 	C 	0.13840 0.13910 0.07960 0.10700
C 	C 	0.37800 0.33650 0.08250 0.10000
C 	C 	0.40870 0.45720 0.84640 -0.16900
C 	C 	0.08970 0.17780 0.03830 -0.04400
C 	C 	0.50530 0.38660 0.91920 0.09500
C 	C 	0.04710 0.06890 0.13230 0.11900
H 	H 	0.95180 0.04760 0.14370 -0.02300
C 	C 	0.83370 0.21690 0.08290 -0.06700
H 	H 	0.86350 0.19550 0.10890 0.05700
C 	C 	0.22720 0.06270 0.14880 -0.19700
C 	C 	0.30260 0.16050 0.83660 0.09000
H 	H 	0.24250 0.15240 0.80750 -0.00600
C 	C 	0.28110 0.19080 0.91820 0.11000
C 	C 	0.44850 0.35330 0.99970 -0.04100
H 	H 	0.34340 0.37570 0.99880 0.04900
C 	C 	0.49580 0.15870 0.84300 -0.18300
C 	C 	0.34620 0.49520 0.80960 0.39000
C 	C 	0.20210 0.17380 0.00080 -0.03600
H 	H 	0.30650 0.15120 0.00210 0.04400
C 	C 	0.46830 0.35240 0.12720 -0.17200
H 	H 	0.60110 0.35250 0.13070 0.10600
C 	C 	0.36310 0.36710 0.16430 0.11600
H 	H 	0.42500 0.37720 0.19270 -0.01100
C 	C 	0.07760 0.35180 0.11770 0.09800
H 	H 	0.94460 0.35180 0.11490 0.01300
C 	C 	0.36830 0.09530 0.13040 0.11400
H 	H 	0.49440 0.09170 0.14180 -0.00600
C 	C 	0.58010 0.17810 0.88570 0.10800
H 	H 	0.71260 0.18150 0.88810 0.00600
C 	C 	0.16180 0.20330 0.96070 -0.04200
C 	C 	0.32180 0.38880 0.90130 -0.16000
H 	H 	0.23160 0.36580 0.91270 0.08700
C 	C 	0.99900 0.10700 0.09830 -0.17900
H 	H 	0.87180 0.11100 0.08790 0.09000
C 	C 	0.64310 0.42010 0.90030 -0.15400
H 	H 	0.76930 0.41830 0.91210 0.08500
C 	C 	0.48080 0.19190 0.92300 -0.18300
H 	H 	0.54290 0.20210 0.95130 0.10000
C 	C 	0.17990 0.33650 0.07970 -0.16600
H 	H 	0.11520 0.32610 0.05180 0.09400
C 	C 	0.59350 0.45600 0.86400 0.08400
H 	H 	0.68470 0.47840 0.85230 -0.00500
C 	C 	0.32670 0.13140 0.09690 -0.18400
H 	H 	0.42450 0.15150 0.08500 0.09400
C 	C 	0.26680 0.42430 0.86660 0.08200
H 	H 	0.13890 0.42700 0.85630 0.01000
Mn	Mn	0.20060 0.56932 0.74834 1.29000
Mn	Mn	0.65369 0.96668 0.23533 1.24900
O 	O 	0.87810 0.91590 0.26825 -0.55800
O 	O 	0.46770 0.60172 0.72233 -0.55300
O 	O 	0.53920 0.02743 0.70630 -0.53200
O 	O 	0.12430 0.87850 0.30406 -0.43000
O 	O 	0.20830 0.63560 0.68867 -0.39000
O 	O 	0.83330 0.48501 0.30837 -0.49500
C 	C 	0.99070 0.74070 0.54160 0.02000
C 	C 	0.06260 0.71380 0.45870 0.02800
O 	O 	0.54270 0.52050 0.30140 -0.49900
C 	C 	0.35540 0.78740 0.45820 0.02500
O 	O 	0.82840 0.99740 0.70308 -0.41900
C 	C 	0.28410 0.81320 0.54220 0.02500
C 	C 	0.09630 0.74640 0.50050 -0.01700
C 	C 	0.38420 0.63180 0.69080 0.37600
C 	C 	0.24600 0.78240 0.49900 -0.01900
C 	C 	0.71390 0.52040 0.31660 0.42600
C 	C 	0.50800 0.82510 0.46100 -0.03600
C 	C 	0.94870 0.88790 0.30120 0.40300
C 	C 	0.83120 0.86720 0.33960 -0.18300
C 	C 	0.02000 0.77280 0.58230 -0.05800
H 	H 	0.94020 0.77030 0.60760 0.05300
C 	C 	0.32760 0.75630 0.41640 -0.06600
H 	H 	0.40360 0.76010 0.39050 0.05900
C 	C 	0.44300 0.84920 0.53820 -0.03400
C 	C 	0.18250 0.81060 0.58320 -0.06900
H 	H 	0.21400 0.83120 0.60960 0.05700
C 	C 	0.80450 0.67520 0.62430 -0.17600
H 	H 	0.93740 0.67430 0.62750 0.10300
C 	C 	0.86160 0.63910 0.42040 0.10800
C 	C 	0.62200 0.83650 0.41750 0.10000
C 	C 	0.59130 0.95720 0.65360 -0.16900
C 	C 	0.91030 0.67780 0.46170 -0.04400
C 	C 	0.49470 0.88660 0.58080 0.09500
C 	C 	0.95290 0.56890 0.36770 0.12100
H 	H 	0.04820 0.54760 0.35630 -0.02300
C 	C 	0.16630 0.71690 0.41710 -0.06700
H 	H 	0.13650 0.69550 0.39110 0.05600
C 	C 	0.77280 0.56270 0.35120 -0.19800
C 	C 	0.69740 0.66050 0.66340 0.09000
H 	H 	0.75750 0.65240 0.69250 -0.00600
C 	C 	0.71890 0.69080 0.58180 0.11000
C 	C 	0.55150 0.85330 0.50030 -0.04000
H 	H 	0.65660 0.87570 0.50120 0.04800
C 	C 	0.50420 0.65870 0.65700 -0.18300
C 	C 	0.65380 0.99520 0.69040 0.39000
C 	C 	0.79790 0.67380 0.49920 -0.03600
H 	H 	0.69350 0.65120 0.49790 0.04400
C 	C 	0.53170 0.85240 0.37280 -0.17200
H 	H 	0.39890 0.85250 0.36930 0.10600
C 	C 	0.63690 0.86710 0.33570 0.11600
H 	H 	0.57500 0.87720 0.30730 -0.01100
C 	C 	0.92240 0.85180 0.38230 0.09700
H 	H 	0.05540 0.85180 0.38510 0.01300
C 	C 	0.63170 0.59530 0.36960 0.11500
H 	H 	0.50560 0.59170 0.35820 -0.00700
C 	C 	0.41990 0.67810 0.61430 0.10800
H 	H 	0.28740 0.68150 0.61190 0.00600
C 	C 	0.83820 0.70330 0.53930 -0.04200
C 	C 	0.67820 0.88880 0.59870 -0.16000
H 	H 	0.76840 0.86580 0.58730 0.08700
C 	C 	0.00100 0.60700 0.40170 -0.18100
H 	H 	0.12820 0.61100 0.41210 0.09000
C 	C 	0.35690 0.92010 0.59970 -0.15400
H 	H 	0.23070 0.91830 0.58790 0.08500
C 	C 	0.51920 0.69190 0.57700 -0.18300
H 	H 	0.45710 0.70210 0.54870 0.10000
C 	C 	0.82010 0.83650 0.42030 -0.16600
H 	H 	0.88480 0.82610 0.44820 0.09400
C 	C 	0.40650 0.95600 0.63600 0.08400
H 	H 	0.31530 0.97840 0.64770 -0.00500
C 	C 	0.67330 0.63140 0.40310 -0.18500
H 	H 	0.57550 0.65150 0.41500 0.09400
C 	C 	0.73320 0.92430 0.63340 0.08300
H 	H 	0.86110 0.92700 0.64370 0.01000
