data_crystal

_audit_creation_method 'AiiDA-DDEC plugin'

_cell_length_a        15.97921
_cell_length_b        19.92686
_cell_length_c        19.89785

_cell_angle_alpha     73.53696
_cell_angle_beta     66.75275
_cell_angle_gamma     66.74237

_symmetry_space_group_name_Hall 'P 1'
_symmetry_space_group_name_H-M  'P 1'

loop_
_symmetry_equiv_pos_as_xyz
 'x,y,z'

loop_
_atom_site_label
_atom_site_type_symbol
_atom_site_fract_x
_atom_site_fract_y
_atom_site_fract_z
_atom_site_charge
Cu         Cu      0.52263   0.52791   0.53120   0.91308
Cu         Cu      0.08712   0.96994   0.97203   0.91456
Cu         Cu      0.91655   0.02936   0.03268   0.91602
Cu         Cu      0.47478   0.46630   0.46973   0.91242
H          H       0.66487   0.49028   0.24427   0.12368
H          H       0.78242   0.52377   0.12494   0.12364
H          H       0.85285   0.64285   0.23421   0.12878
H          H       0.73446   0.60938   0.35274   0.12483
H          H       0.91872   0.63814   0.95844   0.12999
H          H       0.90443   0.00023   0.25819   0.12457
H          H       0.93396   0.96957   0.37905   0.12493
H          H       0.23285   0.85740   0.27345   0.12775
H          H       0.20251   0.88843   0.15267   0.12541
H          H       0.04175   0.86715   0.54876   0.12835
H          H       0.09644   0.74400   0.99371   0.12427
H          H       0.06341   0.62446   0.02716   0.12451
H          H       0.76503   0.73518   0.13683   0.12832
H          H       0.79930   0.85407   0.10333   0.12618
H          H       0.97793   0.45748   0.13071   0.13086
H          H       0.35972   0.75491   0.48721   0.12594
H          H       0.24230   0.87656   0.45585   0.12719
H          H       0.11388   0.76484   0.38770   0.12838
H          H       0.23292   0.64383   0.41756   0.12611
H          H       0.05815   0.04417   0.36540   0.12839
H          H       0.33871   0.49706   0.75668   0.12476
H          H       0.21382   0.47101   0.87522   0.12445
H          H       0.11761   0.37510   0.76236   0.12546
H          H       0.24280   0.40138   0.64413   0.12530
H          H       0.06212   0.37059   0.03881   0.13002
H          H       0.10621   0.01426   0.74206   0.12572
H          H       0.07648   0.04904   0.62052   0.12621
H          H       0.77154   0.12382   0.73290   0.12973
H          H       0.80206   0.09014   0.85391   0.12627
H          H       0.97144   0.13541   0.45231   0.12997
H          H       0.89382   0.25760   0.00086   0.12513
H          H       0.91927   0.38031   0.96627   0.12478
H          H       0.22182   0.27557   0.86358   0.12751
H          H       0.19516   0.15337   0.89874   0.12553
H          H       0.00334   0.55125   0.86618   0.13013
H          H       0.66573   0.24178   0.49594   0.12584
H          H       0.78821   0.12382   0.52595   0.12488
H          H       0.86187   0.23540   0.64048   0.12272
H          H       0.74032   0.35310   0.60869   0.12523
H          H       0.95426   0.95832   0.63607   0.12807
C          C       0.62167   0.52831   0.37752   0.58347
C          C       0.69210   0.54771   0.30625  -0.06004
C          C       0.70650   0.52349   0.24155  -0.07231
C          C       0.77211   0.54233   0.17484  -0.19898
C          C       0.82594   0.58560   0.17110   0.18096
C          C       0.81160   0.60978   0.23607  -0.19976
C          C       0.74531   0.59120   0.30244  -0.07544
C          C       0.95117   0.57961   0.97560  -0.16754
C          C       0.03410   0.96770   0.12556   0.57829
C          C       0.05180   0.94712   0.19767  -0.05671
C          C       0.97615   0.96947   0.26202  -0.07718
C          C       0.99255   0.95217   0.32939  -0.19550
C          C       0.08556   0.91207   0.33388   0.18579
C          C       0.16112   0.88836   0.26981  -0.19654
C          C       0.14423   0.90577   0.20256  -0.07368
C          C       0.02650   0.92589   0.52785  -0.17213
C          C       0.96952   0.87732   0.02976   0.57751
C          C       0.95006   0.80638   0.04719  -0.05603
C          C       0.02422   0.74146   0.02502  -0.07508
C          C       0.00576   0.67477   0.04376  -0.19362
C          C       0.91224   0.67163   0.08497   0.17828
C          C       0.83763   0.73696   0.10611  -0.19471
C          C       0.85663   0.80333   0.08745  -0.07755
C          C       0.98357   0.47790   0.07281  -0.16578
C          C       0.37527   0.62031   0.47144   0.57730
C          C       0.30383   0.69204   0.45406  -0.04932
C          C       0.30521   0.75785   0.46579  -0.07811
C          C       0.23985   0.82544   0.44841  -0.18974
C          C       0.17077   0.82818   0.41977   0.17924
C          C       0.16827   0.76227   0.40907  -0.18677
C          C       0.23467   0.69497   0.42553  -0.07931
C          C       0.03511   0.02541   0.42466  -0.17202
C          C       0.37189   0.46748   0.62195   0.58611
C          C       0.29845   0.45103   0.69287  -0.05682
C          C       0.28957   0.47086   0.75836  -0.07243
C          C       0.21996   0.45627   0.82450  -0.19800
C          C       0.15758   0.42132   0.82652   0.18611
C          C       0.16641   0.40143   0.76095  -0.18985
C          C       0.23615   0.41602   0.69509  -0.07657
C          C       0.03087   0.42922   0.02126  -0.16957
C          C       0.97374   0.03003   0.87751   0.57621
C          C       0.95605   0.05023   0.80536  -0.05228
C          C       0.03339   0.03824   0.73934  -0.07817
C          C       0.01681   0.05755   0.67179  -0.18835
C          C       0.92216   0.08828   0.66921   0.17915
C          C       0.84458   0.10051   0.73519  -0.19083
C          C       0.86161   0.08195   0.80249  -0.07681
C          C       0.98616   0.07671   0.47358  -0.17220
C          C       0.02779   0.12472   0.97332   0.57986
C          C       0.04290   0.19777   0.95228  -0.05807
C          C       0.96532   0.26218   0.97122  -0.07620
C          C       0.97952   0.33054   0.95175  -0.19324
C          C       0.07230   0.33592   0.91259   0.18318
C          C       0.15007   0.27151   0.89326  -0.19472
C          C       0.13526   0.20340   0.91281  -0.07327
C          C      -0.00107   0.53103   0.92391  -0.16672
C          C       0.62337   0.37549   0.53136   0.57538
C          C       0.69522   0.30499   0.55036  -0.05880
C          C       0.70940   0.23987   0.52713  -0.07628
C          C       0.77764   0.17403   0.54401  -0.19930
C          C       0.83388   0.17171   0.58469   0.18588
C          C       0.81899   0.23678   0.60883  -0.19271
C          C       0.75074   0.30239   0.59158  -0.07500
C          C       0.97726   0.97716   0.57681  -0.16936
C          C       0.94296   0.55363   0.05057   0.15094
C          C       0.05541   0.94929   0.45113   0.15873
C          C       0.03930   0.45519   0.94623   0.15900
C          C       0.95607   0.05328   0.55036   0.15804
N          N       0.89360   0.60372   0.10317  -0.12030
N          N       0.10383   0.89670   0.40153  -0.14158
N          N       0.08731   0.40527   0.89371  -0.14747
N          N       0.90509   0.10548   0.60057  -0.13813
O          O       0.61289   0.55278   0.43390  -0.54937
O          O       0.57473   0.48884   0.37741  -0.55050
O          O       0.10717   0.94905   0.06817  -0.54743
O          O       0.94711   0.00289   0.12590  -0.55062
O          O       0.89681   0.93404   0.05082  -0.54796
O          O       0.05667   0.87681   0.99576  -0.54741
O          O       0.38281   0.56437   0.44708  -0.54680
O          O       0.42413   0.62022   0.50948  -0.54245
O          O       0.37639   0.44719   0.56447  -0.54964
O          O       0.42517   0.50086   0.62343  -0.55389
O          O       0.90061   0.05005   0.93423  -0.54736
O          O       0.06050   0.99447   0.87758  -0.54488
O          O       0.10170   0.06853   0.95303  -0.54924
O          O       0.94180   0.12333   0.01009  -0.54661
O          O       0.61991   0.43350   0.54993  -0.54849
O          O       0.57045   0.37347   0.49784  -0.54575

