data_crystal

_cell_length_a 11.38870
_cell_length_b 13.74950
_cell_length_c 13.74950
_cell_angle_alpha 80.12380
_cell_angle_beta  65.53410
_cell_angle_gamma 65.53420

_symmetry_space_group_name_	'P 1'
_symmetry_space_group_name_H-M	'P 1'

loop_
_symmetry_equiv_pos_as_xyz
  x,y,z

loop_
_atom_site_label
_atom_site_type_symbol
_atom_site_fract_x
_atom_site_fract_y
_atom_site_fract_z
_atom_site_charge
Zn	Zn	0.33712 0.55080 0.47294 1.10900
Zn	Zn	0.86086 0.94920 0.02706 1.10700
Zn	Zn	0.81006 0.52706 0.05080 1.10900
Zn	Zn	0.88792 0.97294 0.44920 1.10800
Zn	Zn	0.66288 0.44920 0.52706 1.10900
Zn	Zn	0.13914 0.05080 0.97294 1.10700
Zn	Zn	0.18994 0.47294 0.94920 1.10900
Zn	Zn	0.11208 0.02706 0.55080 1.10800
H 	H 	0.91020 0.42180 0.34300 0.08800
H 	H 	0.95580 0.38470 0.22670 0.12800
H 	H 	0.93480 0.50080 0.24680 0.10100
H 	H 	0.50400 0.57360 0.22600 -0.12200
H 	H 	0.17500 0.07820 0.15700 0.09200
H 	H 	0.06720 0.11530 0.27330 0.13000
H 	H 	0.18240 0.99920 0.25320 0.10400
H 	H 	0.80360 0.92640 0.27400 -0.12300
H 	H 	0.25320 0.65700 0.92180 0.09000
H 	H 	0.18250 0.77330 0.88470 0.13100
H 	H 	0.18160 0.75320 0.00080 0.10400
H 	H 	0.73000 0.77400 0.07360 -0.12300
H 	H 	0.33200 0.84300 0.57820 0.09100
H 	H 	0.34050 0.72670 0.61530 0.13000
H 	H 	0.43560 0.74680 0.49920 0.10300
H 	H 	0.07760 0.72600 0.42640 -0.12200
H 	H 	0.08980 0.57820 0.65700 0.08800
H 	H 	0.04420 0.61530 0.77330 0.12800
H 	H 	0.06520 0.49920 0.75320 0.10100
H 	H 	0.49600 0.42640 0.77400 -0.12200
H 	H 	0.82500 0.92180 0.84300 0.09200
H 	H 	0.93280 0.88470 0.72670 0.13000
H 	H 	0.81760 0.00080 0.74680 0.10400
H 	H 	0.19640 0.07360 0.72600 -0.12300
H 	H 	0.74680 0.34300 0.07820 0.09000
H 	H 	0.81750 0.22670 0.11530 0.13100
H 	H 	0.81840 0.24680 0.99920 0.10400
H 	H 	0.27000 0.22600 0.92640 -0.12300
H 	H 	0.66800 0.15700 0.42180 0.09100
H 	H 	0.65950 0.27330 0.38470 0.13000
H 	H 	0.56440 0.25320 0.50080 0.10300
H 	H 	0.92240 0.27400 0.57360 -0.12200
C 	C 	0.90150 0.44410 0.27530 -0.57100
C 	C 	0.75150 0.48290 0.29030 0.18100
C 	C 	0.56627 0.54535 0.26051 0.06200
C 	C 	0.12090 0.05590 0.22470 -0.57700
C 	C 	0.02470 0.01710 0.20970 0.18500
C 	C 	0.87213 0.95465 0.23949 0.06000
C 	C 	0.17680 0.72470 0.94410 -0.57500
C 	C 	0.04180 0.70970 0.98290 0.18500
C 	C 	0.82678 0.73949 0.04535 0.06100
C 	C 	0.34560 0.77530 0.55590 -0.57500
C 	C 	0.23440 0.79030 0.51710 0.18200
C 	C 	0.11162 0.76051 0.45465 0.06200
C 	C 	0.09850 0.55590 0.72470 -0.57100
C 	C 	0.24850 0.51710 0.70970 0.18100
C 	C 	0.43373 0.45465 0.73949 0.06200
C 	C 	0.87910 0.94410 0.77530 -0.57700
C 	C 	0.97530 0.98290 0.79030 0.18500
C 	C 	0.12787 0.04535 0.76051 0.06000
C 	C 	0.82320 0.27530 0.05590 -0.57500
C 	C 	0.95820 0.29030 0.01710 0.18500
C 	C 	0.17322 0.26051 0.95465 0.06100
C 	C 	0.65440 0.22470 0.44410 -0.57500
C 	C 	0.76560 0.20970 0.48290 0.18200
C 	C 	0.88838 0.23949 0.54535 0.06200
N 	N 	0.52914 0.52680 0.36332 -0.30900
N 	N 	0.65003 0.48617 0.38297 -0.32200
N 	N 	0.70461 0.51889 0.21049 -0.34500
N 	N 	0.91926 0.97320 0.13668 -0.31200
N 	N 	0.01917 0.01383 0.11703 -0.32000
N 	N 	0.93399 0.98111 0.28951 -0.34900
N 	N 	0.89246 0.63668 0.02680 -0.31000
N 	N 	0.03300 0.61703 0.98617 -0.32300
N 	N 	0.91510 0.78951 0.01889 -0.34900
N 	N 	0.05594 0.86332 0.47320 -0.30800
N 	N 	0.13620 0.88297 0.51383 -0.32200
N 	N 	0.22350 0.71049 0.48111 -0.34600
N 	N 	0.47086 0.47320 0.63668 -0.30900
N 	N 	0.34997 0.51383 0.61703 -0.32200
N 	N 	0.29539 0.48111 0.78951 -0.34500
N 	N 	0.08074 0.02680 0.86332 -0.31200
N 	N 	0.98083 0.98617 0.88297 -0.32000
N 	N 	0.06601 0.01889 0.71049 -0.34900
N 	N 	0.10754 0.36332 0.97320 -0.31000
N 	N 	0.96700 0.38297 0.01383 -0.32300
N 	N 	0.08490 0.21049 0.98111 -0.34900
N 	N 	0.94406 0.13668 0.52680 -0.30800
N 	N 	0.86380 0.11703 0.48617 -0.32200
N 	N 	0.77650 0.28951 0.51889 -0.34600
