data_crystal

_cell_length_a 21.75100
_cell_length_b 9.38900
_cell_length_c 17.03000
_cell_angle_alpha 90.00000
_cell_angle_beta  109.96500
_cell_angle_gamma 90.00000

_symmetry_space_group_name_	'P 1'
_symmetry_space_group_name_H-M	'P 1'

loop_
_symmetry_equiv_pos_as_xyz
  x,y,z

loop_
_atom_site_label
_atom_site_type_symbol
_atom_site_fract_x
_atom_site_fract_y
_atom_site_fract_z
_atom_site_charge
C 	C 	0.41209 0.86860 0.26501 0.43100
C 	C 	0.36919 0.97173 0.28918 -0.10000
C 	C 	0.38994 0.02610 0.36985 -0.00500
H 	H 	0.42880 0.99480 0.40930 0.05200
C 	C 	0.35158 0.12820 0.39087 -0.05200
C 	C 	0.29297 0.17090 0.33289 -0.09800
H 	H 	0.26750 0.23780 0.34810 0.07400
C 	C 	0.27081 0.11550 0.25120 0.10000
C 	C 	0.31041 0.01660 0.22969 -0.07200
H 	H 	0.29760 0.98050 0.17560 0.07200
C 	C 	0.18688 0.11820 0.10846 -0.09000
H 	H 	0.14080 0.14250 0.08580 0.04300
H 	H 	0.19020 0.01550 0.10510 0.06000
C 	C 	0.22102 0.18530 0.05366 0.04700
C 	C 	0.23769 0.10560 0.99535 -0.08000
H 	H 	0.22970 0.00810 0.99160 0.06500
C 	C 	0.23389 0.33120 0.05744 -0.06300
H 	H 	0.22320 0.38700 0.09600 0.06000
C 	C 	0.37481 0.19330 0.47691 0.30600
N 	N 	0.21148 0.15900 0.19580 -0.19100
H 	H 	0.18760 0.21360 0.21400 0.11700
O 	O 	0.39527 0.83706 0.18933 -0.52000
O 	O 	0.45952 0.81790 0.32008 -0.54900
O 	O 	0.42954 0.14760 0.52605 -0.45500
O 	O 	0.34285 0.28520 0.49675 -0.34900
Zn	Zn	0.44856 0.75236 0.13075 1.19200
C 	C 	0.91209 0.36860 0.26501 0.43300
C 	C 	0.86919 0.47173 0.28918 -0.10100
C 	C 	0.88994 0.52610 0.36985 -0.00200
H 	H 	0.92880 0.49480 0.40930 0.05200
C 	C 	0.85158 0.62820 0.39087 -0.05200
C 	C 	0.79297 0.67090 0.33289 -0.09600
H 	H 	0.76750 0.73780 0.34810 0.07400
C 	C 	0.77081 0.61550 0.25120 0.09800
C 	C 	0.81041 0.51660 0.22969 -0.07000
H 	H 	0.79760 0.48050 0.17560 0.07100
C 	C 	0.68688 0.61820 0.10846 -0.09100
H 	H 	0.64080 0.64250 0.08580 0.04300
H 	H 	0.69020 0.51550 0.10510 0.06100
C 	C 	0.72102 0.68530 0.05366 0.04800
C 	C 	0.73769 0.60560 0.99535 -0.08200
H 	H 	0.72970 0.50810 0.99160 0.06600
C 	C 	0.73389 0.83120 0.05744 -0.06500
H 	H 	0.72320 0.88700 0.09600 0.06100
C 	C 	0.87481 0.69330 0.47691 0.30700
N 	N 	0.71148 0.65900 0.19580 -0.19100
H 	H 	0.68760 0.71360 0.21400 0.11700
O 	O 	0.89527 0.33706 0.18933 -0.52000
O 	O 	0.95952 0.31790 0.32008 -0.54900
O 	O 	0.92954 0.64760 0.52605 -0.45500
O 	O 	0.84285 0.78520 0.49675 -0.34900
Zn	Zn	0.94856 0.25236 0.13075 1.19200
C 	C 	0.58791 0.86860 0.23499 0.43100
C 	C 	0.63081 0.97173 0.21082 -0.09800
C 	C 	0.61006 0.02610 0.13015 -0.00600
H 	H 	0.57120 0.99480 0.09070 0.05400
C 	C 	0.64842 0.12820 0.10913 -0.05000
C 	C 	0.70703 0.17090 0.16711 -0.09800
H 	H 	0.73250 0.23780 0.15190 0.07400
C 	C 	0.72919 0.11550 0.24880 0.10000
C 	C 	0.68959 0.01660 0.27031 -0.07300
H 	H 	0.70240 0.98050 0.32440 0.07200
C 	C 	0.81312 0.11820 0.39154 -0.09000
H 	H 	0.85920 0.14250 0.41420 0.04300
H 	H 	0.80980 0.01550 0.39490 0.06100
C 	C 	0.77898 0.18530 0.44634 0.04800
C 	C 	0.76231 0.10560 0.50465 -0.08100
H 	H 	0.77030 0.00810 0.50840 0.06600
C 	C 	0.76611 0.33120 0.44256 -0.06400
H 	H 	0.77680 0.38700 0.40400 0.06100
C 	C 	0.62519 0.19330 0.02309 0.30500
N 	N 	0.78852 0.15900 0.30420 -0.19100
H 	H 	0.81240 0.21360 0.28600 0.11700
O 	O 	0.60473 0.83706 0.31067 -0.52000
O 	O 	0.54048 0.81790 0.17992 -0.54900
O 	O 	0.57046 0.14760 0.97395 -0.45500
O 	O 	0.65715 0.28520 0.00325 -0.35000
Zn	Zn	0.55144 0.75236 0.36925 1.19200
C 	C 	0.08791 0.36860 0.23499 0.43300
C 	C 	0.13081 0.47173 0.21082 -0.10100
C 	C 	0.11006 0.52610 0.13015 -0.00200
H 	H 	0.07120 0.49480 0.09070 0.05200
C 	C 	0.14842 0.62820 0.10913 -0.05200
C 	C 	0.20703 0.67090 0.16711 -0.09600
H 	H 	0.23250 0.73780 0.15190 0.07400
C 	C 	0.22919 0.61550 0.24880 0.09800
C 	C 	0.18959 0.51660 0.27031 -0.07000
H 	H 	0.20240 0.48050 0.32440 0.07100
C 	C 	0.31312 0.61820 0.39154 -0.09000
H 	H 	0.35920 0.64250 0.41420 0.04300
H 	H 	0.30980 0.51550 0.39490 0.06100
C 	C 	0.27898 0.68530 0.44634 0.04800
C 	C 	0.26231 0.60560 0.50465 -0.08100
H 	H 	0.27030 0.50810 0.50840 0.06600
C 	C 	0.26611 0.83120 0.44256 -0.06400
H 	H 	0.27680 0.88700 0.40400 0.06100
C 	C 	0.12519 0.69330 0.02309 0.30800
N 	N 	0.28852 0.65900 0.30420 -0.19100
H 	H 	0.31240 0.71360 0.28600 0.11700
O 	O 	0.10473 0.33706 0.31067 -0.52000
O 	O 	0.04048 0.31790 0.17992 -0.54900
O 	O 	0.07046 0.64760 0.97395 -0.45600
O 	O 	0.15715 0.78520 0.00325 -0.34900
Zn	Zn	0.05144 0.25236 0.36925 1.19200
C 	C 	0.58791 0.13140 0.73499 0.43200
C 	C 	0.63081 0.02827 0.71082 -0.09900
C 	C 	0.61006 0.97390 0.63015 -0.00400
H 	H 	0.57120 0.00520 0.59070 0.05300
C 	C 	0.64842 0.87180 0.60913 -0.05100
C 	C 	0.70703 0.82910 0.66711 -0.09700
H 	H 	0.73250 0.76220 0.65190 0.07400
C 	C 	0.72919 0.88450 0.74880 0.10000
C 	C 	0.68959 0.98340 0.77031 -0.07200
H 	H 	0.70240 0.01950 0.82440 0.07200
C 	C 	0.81312 0.88180 0.89154 -0.09000
H 	H 	0.85920 0.85750 0.91420 0.04300
H 	H 	0.80980 0.98450 0.89490 0.06000
C 	C 	0.77898 0.81470 0.94634 0.04700
C 	C 	0.76231 0.89440 0.00465 -0.08000
H 	H 	0.77030 0.99190 0.00840 0.06500
C 	C 	0.76611 0.66880 0.94256 -0.06300
H 	H 	0.77680 0.61300 0.90400 0.06000
C 	C 	0.62519 0.80670 0.52309 0.30600
N 	N 	0.78852 0.84100 0.80420 -0.19100
H 	H 	0.81240 0.78640 0.78600 0.11700
O 	O 	0.60473 0.16294 0.81067 -0.52000
O 	O 	0.54048 0.18210 0.67992 -0.54900
O 	O 	0.57046 0.85240 0.47395 -0.45500
O 	O 	0.65715 0.71480 0.50325 -0.34900
Zn	Zn	0.55144 0.24764 0.86925 1.19200
C 	C 	0.08791 0.63140 0.73499 0.43300
C 	C 	0.13081 0.52827 0.71082 -0.10100
C 	C 	0.11006 0.47390 0.63015 -0.00200
H 	H 	0.07120 0.50520 0.59070 0.05200
C 	C 	0.14842 0.37180 0.60913 -0.05200
C 	C 	0.20703 0.32910 0.66711 -0.09600
H 	H 	0.23250 0.26220 0.65190 0.07400
C 	C 	0.22919 0.38450 0.74880 0.09800
C 	C 	0.18959 0.48340 0.77031 -0.07000
H 	H 	0.20240 0.51950 0.82440 0.07100
C 	C 	0.31312 0.38180 0.89154 -0.09100
H 	H 	0.35920 0.35750 0.91420 0.04300
H 	H 	0.30980 0.48450 0.89490 0.06100
C 	C 	0.27898 0.31470 0.94634 0.04800
C 	C 	0.26231 0.39440 0.00465 -0.08200
H 	H 	0.27030 0.49190 0.00840 0.06600
C 	C 	0.26611 0.16880 0.94256 -0.06500
H 	H 	0.27680 0.11300 0.90400 0.06100
C 	C 	0.12519 0.30670 0.52309 0.30700
N 	N 	0.28852 0.34100 0.80420 -0.19100
H 	H 	0.31240 0.28640 0.78600 0.11700
O 	O 	0.10473 0.66294 0.81067 -0.52000
O 	O 	0.04048 0.68210 0.67992 -0.54900
O 	O 	0.07046 0.35240 0.47395 -0.45500
O 	O 	0.15715 0.21480 0.50325 -0.34900
Zn	Zn	0.05144 0.74764 0.86925 1.19200
C 	C 	0.41209 0.13140 0.76501 0.43100
C 	C 	0.36919 0.02827 0.78918 -0.09800
C 	C 	0.38994 0.97390 0.86985 -0.00600
H 	H 	0.42880 0.00520 0.90930 0.05400
C 	C 	0.35158 0.87180 0.89087 -0.05000
C 	C 	0.29297 0.82910 0.83289 -0.09800
H 	H 	0.26750 0.76220 0.84810 0.07400
C 	C 	0.27081 0.88450 0.75120 0.10000
C 	C 	0.31041 0.98340 0.72969 -0.07300
H 	H 	0.29760 0.01950 0.67560 0.07200
C 	C 	0.18688 0.88180 0.60846 -0.09000
H 	H 	0.14080 0.85750 0.58580 0.04300
H 	H 	0.19020 0.98450 0.60510 0.06100
C 	C 	0.22102 0.81470 0.55366 0.04800
C 	C 	0.23769 0.89440 0.49535 -0.08100
H 	H 	0.22970 0.99190 0.49160 0.06600
C 	C 	0.23389 0.66880 0.55744 -0.06400
H 	H 	0.22320 0.61300 0.59600 0.06100
C 	C 	0.37481 0.80670 0.97691 0.30500
N 	N 	0.21148 0.84100 0.69580 -0.19100
H 	H 	0.18760 0.78640 0.71400 0.11700
O 	O 	0.39527 0.16294 0.68933 -0.52000
O 	O 	0.45952 0.18210 0.82008 -0.54900
O 	O 	0.42954 0.85240 0.02605 -0.45500
O 	O 	0.34285 0.71480 0.99675 -0.35000
Zn	Zn	0.44856 0.24764 0.63075 1.19200
C 	C 	0.91209 0.63140 0.76501 0.43300
C 	C 	0.86919 0.52827 0.78918 -0.10100
C 	C 	0.88994 0.47390 0.86985 -0.00200
H 	H 	0.92880 0.50520 0.90930 0.05200
C 	C 	0.85158 0.37180 0.89087 -0.05200
C 	C 	0.79297 0.32910 0.83289 -0.09600
H 	H 	0.76750 0.26220 0.84810 0.07400
C 	C 	0.77081 0.38450 0.75120 0.09800
C 	C 	0.81041 0.48340 0.72969 -0.07000
H 	H 	0.79760 0.51950 0.67560 0.07100
C 	C 	0.68688 0.38180 0.60846 -0.09000
H 	H 	0.64080 0.35750 0.58580 0.04300
H 	H 	0.69020 0.48450 0.60510 0.06100
C 	C 	0.72102 0.31470 0.55366 0.04800
C 	C 	0.73769 0.39440 0.49535 -0.08100
H 	H 	0.72970 0.49190 0.49160 0.06600
C 	C 	0.73389 0.16880 0.55744 -0.06400
H 	H 	0.72320 0.11300 0.59600 0.06100
C 	C 	0.87481 0.30670 0.97691 0.30800
N 	N 	0.71148 0.34100 0.69580 -0.19100
H 	H 	0.68760 0.28640 0.71400 0.11700
O 	O 	0.89527 0.66294 0.68933 -0.52000
O 	O 	0.95952 0.68210 0.82008 -0.54900
O 	O 	0.92954 0.35240 0.02605 -0.45600
O 	O 	0.84285 0.21480 0.99675 -0.34900
Zn	Zn	0.94856 0.74764 0.63075 1.19200
