data_crystal

_audit_creation_method 'AiiDA-DDEC plugin'

_cell_length_a        14.94752
_cell_length_b        14.86406
_cell_length_c        11.91468

_cell_angle_alpha     89.98033
_cell_angle_beta     90.04076
_cell_angle_gamma     89.96558

_symmetry_space_group_name_Hall 'P 1'
_symmetry_space_group_name_H-M  'P 1'

loop_
_symmetry_equiv_pos_as_xyz
 'x,y,z'

loop_
_atom_site_label
_atom_site_type_symbol
_atom_site_fract_x
_atom_site_fract_y
_atom_site_fract_z
_atom_site_charge
Al         Al      0.69171   0.30844   0.49928   1.68154
Al         Al      0.18975   0.80730  -0.00095   1.67821
Al         Al      0.80648   0.19116  -0.00043   1.67807
Al         Al      0.30738   0.69391   0.49915   1.67696
Al         Al      0.69149   0.19176   0.74899   1.68191
Al         Al      0.19153   0.69106   0.24936   1.67110
Al         Al      0.80540   0.30860   0.24841   1.68454
Al         Al      0.30592   0.81016   0.74919   1.67518
H          H       0.56485   0.37043   0.92159   0.11722
H          H       0.07394   0.87980   0.42491   0.12078
H          H       0.93772   0.13583   0.41791   0.12158
H          H       0.42744   0.62543   0.92380   0.12215
H          H       0.63163   0.06105   0.16937   0.11757
H          H       0.12902   0.56331   0.67301   0.11837
H          H       0.87471   0.42586   0.67108   0.12444
H          H       0.37364   0.93115   0.17340   0.12132
H          H       0.93097   0.36898   0.83079   0.12444
H          H       0.43476   0.86825   0.32969   0.12616
H          H       0.57042   0.12462   0.32625   0.11902
H          H       0.07125   0.62326   0.82838   0.12317
H          H       0.87789   0.07542   0.57562   0.11684
H          H       0.36774   0.56504   0.07985   0.12576
H          H       0.62366   0.42951   0.07930   0.12360
H          H       0.13441   0.94162   0.58091   0.12653
H          H       0.80968   0.23460   0.61391   0.41792
H          H       0.30570   0.77321   0.13855   0.41201
H          H       0.68496   0.23498   0.13106   0.41485
H          H       0.19178   0.72824   0.63890   0.41353
H          H       0.72823   0.30892   0.88705   0.41508
H          H       0.22609   0.80867   0.38677   0.41120
H          H       0.73938   0.18679   0.36733   0.41598
H          H       0.27068   0.69293   0.88694   0.41179
H          H       0.49985   0.50181   0.61070   0.13660
H          H      -0.00123  -0.00104   0.11006   0.14165
H          H       0.49860  -0.00220   0.85966   0.14224
H          H      -0.00039   0.50106   0.36034   0.13607
H          H       0.99700   0.50052   0.14084   0.14087
H          H       0.49987   0.00067   0.63937   0.13684
H          H      -0.00094   0.00173   0.88952   0.14099
H          H       0.49679   0.49793   0.39089   0.14071
C          C       0.59235   0.35893   0.70214   0.63505
C          C       0.54031   0.43058   0.76094  -0.04281
C          C       0.53606   0.42794   0.87820  -0.13092
C          C       0.09359   0.85959   0.20402   0.63665
C          C       0.04497   0.93397   0.26205  -0.04409
C          C       0.04495   0.93615   0.37941  -0.13321
C          C       0.90682   0.14238   0.19952   0.63305
C          C       0.96087   0.07281   0.25915  -0.04059
C          C       0.96650   0.07756   0.37617  -0.12856
C          C       0.40493   0.64238   0.70386   0.63647
C          C       0.45562   0.56923   0.76188  -0.04286
C          C       0.45687   0.56885   0.87929  -0.13365
C          C       0.64184   0.08967   0.95064   0.63205
C          C       0.57047   0.03766   0.00944  -0.04182
C          C       0.57335   0.03367   0.12673  -0.13170
C          C       0.14131   0.59327   0.45398   0.63592
C          C       0.07005   0.54018   0.51157  -0.04334
C          C       0.07184   0.53521   0.62882  -0.13271
C          C       0.85859   0.40662   0.45109   0.63650
C          C       0.93170   0.45594   0.51055  -0.04197
C          C       0.93129   0.45628   0.62804  -0.12685
C          C       0.35715   0.90662   0.95386   0.63399
C          C       0.43060   0.95637   0.01152  -0.04204
C          C       0.43094   0.95847   0.12877  -0.13323
C          C       0.90428   0.35828   0.04898   0.63831
C          C       0.95706   0.42919   0.99053  -0.04335
C          C       0.96100   0.42625   0.87328  -0.12616
C          C       0.40807   0.85765   0.54827   0.63938
C          C       0.45989   0.92899   0.48946  -0.04382
C          C       0.46375   0.92602   0.37222  -0.12822
C          C       0.59238   0.14138   0.54621   0.63424
C          C       0.54308   0.06794   0.48788  -0.04342
C          C       0.54180   0.06754   0.37057  -0.13336
C          C       0.09112   0.64094   0.04792   0.63808
C          C       0.04142   0.56758   0.98947  -0.04339
C          C       0.04072   0.56687   0.87205  -0.13117
C          C       0.85912   0.09530   0.79591   0.63778
C          C       0.93303   0.04679   0.73784  -0.04367
C          C       0.93445   0.04659   0.62047  -0.13132
C          C       0.35501   0.59055   0.29865   0.63808
C          C       0.42678   0.53902   0.24027  -0.04394
C          C       0.42501   0.53591   0.12292  -0.12928
C          C       0.63895   0.40688   0.29842   0.63855
C          C       0.56574   0.45633   0.23991  -0.04322
C          C       0.56634   0.45827   0.12255  -0.13166
C          C       0.14332   0.91187   0.79857   0.63709
C          C       0.07234   0.96455   0.74006  -0.04235
C          C       0.07621   0.96977   0.62292  -0.12951
C          C       0.49874   0.50067   0.70190  -0.08684
C          C       0.49579   0.49767   0.93890   0.06709
C          C       0.00142   0.00173   0.20116  -0.09187
C          C       0.00691   0.00839   0.43789   0.06350
C          C       0.49984   0.99727   0.95089  -0.09038
C          C       0.50297   0.99559   0.18783   0.06653
C          C       0.00042   0.49920   0.45154  -0.08892
C          C       0.00178   0.49515   0.68862   0.06534
C          C      -0.00159   0.49918   0.04964  -0.09346
C          C       0.00159   0.49572   0.81244   0.06289
C          C       0.50085  -0.00074   0.54821  -0.08768
C          C       0.50335   0.99602   0.31137   0.06160
C          C       0.00130   0.00419   0.79843  -0.09253
C          C       0.00647   0.00911   0.56160   0.06479
C          C       0.49646   0.49780   0.29967  -0.09167
C          C       0.49541   0.49686   0.06260   0.06181
O          O       0.62223   0.37749   0.60519  -0.56540
O          O       0.60476   0.28538   0.75621  -0.61216
O          O       0.12027   0.87564   0.10488  -0.57970
O          O       0.10649   0.78715   0.26033  -0.61723
O          O       0.87521   0.12048   0.10430  -0.57820
O          O       0.89443   0.21692   0.25076  -0.61111
O          O       0.37756   0.62598   0.60517  -0.57854
O          O       0.39111   0.71448   0.76041  -0.61948
O          O       0.62320   0.11984   0.85364  -0.57753
O          O       0.71462   0.10234   0.00530  -0.61530
O          O       0.12395   0.62187   0.35596  -0.57746
O          O       0.21296   0.60823   0.51045  -0.62106
O          O       0.87562   0.37769   0.35313  -0.57444
O          O       0.78551   0.39533   0.50525  -0.60581
O          O       0.37370   0.87941   0.85515  -0.57739
O          O       0.28521   0.89333   0.01018  -0.61725
O          O       0.87148   0.37852   0.14402  -0.57700
O          O       0.89372   0.28382   0.99704  -0.60284
O          O       0.37804   0.87608   0.64530  -0.57249
O          O       0.39567   0.78461   0.49410  -0.60059
O          O       0.61988   0.12441   0.64485  -0.57637
O          O       0.60474   0.21392   0.49021  -0.61203
O          O       0.12054   0.62309   0.14561  -0.57223
O          O       0.10219   0.71461   0.99419  -0.60146
O          O       0.87548   0.12381   0.89419  -0.56770
O          O       0.78654   0.10660   0.74023  -0.60847
O          O       0.37362   0.62204   0.39505  -0.57298
O          O       0.28162   0.60115   0.24509  -0.59947
O          O       0.62210   0.37803   0.39658  -0.58389
O          O       0.71160   0.39537   0.24390  -0.60878
O          O       0.12415   0.87995   0.89464  -0.57231
O          O       0.21666   0.90086   0.74511  -0.59939
O          O       0.74704   0.24931   0.62285  -1.01059
O          O       0.24820   0.74631   0.12164  -1.00208
O          O       0.74769   0.24945   0.12291  -1.00926
O          O       0.24908   0.75547   0.62168  -1.00203
O          O       0.75049   0.24876   0.87294  -1.00515
O          O       0.25293   0.75062   0.37104  -1.00115
O          O       0.75069   0.25067   0.37410  -1.00931
O          O       0.24470   0.75135   0.87120  -1.00239

