data_crystal

_cell_length_a 13.22490
_cell_length_b 13.29890
_cell_length_c 20.34880
_cell_angle_alpha 81.26600
_cell_angle_beta  81.42600
_cell_angle_gamma 81.24600

_symmetry_space_group_name_	'P 1'
_symmetry_space_group_name_H-M	'P 1'

loop_
_symmetry_equiv_pos_as_xyz
  x,y,z

loop_
_atom_site_label
_atom_site_type_symbol
_atom_site_fract_x
_atom_site_fract_y
_atom_site_fract_z
_atom_site_charge
Zn	Zn	0.84308 0.73529 0.29524 1.13700
N 	N 	0.73473 0.81938 0.35314 -0.30300
C 	C 	0.73290 0.92010 0.35484 0.07900
H 	H 	0.78770 0.95360 0.32980 -0.03500
C 	C 	0.65380 0.97740 0.39170 -0.17600
H 	H 	0.65470 0.04880 0.39150 0.07400
C 	C 	0.57410 0.92940 0.42871 0.09900
C 	C 	0.57730 0.82490 0.42814 -0.17500
H 	H 	0.52430 0.78930 0.45370 0.07700
C 	C 	0.65830 0.77260 0.38999 0.07300
H 	H 	0.65960 0.70100 0.39000 -0.03800
C 	C 	0.48630 0.99160 0.46750 -0.13600
H 	H 	0.46860 0.05880 0.44050 0.02900
H 	H 	0.42470 0.95520 0.47560 0.04200
N 	N 	0.89141 0.82871 0.20965 -0.29800
C 	C 	0.83580 0.91490 0.18392 0.08000
H 	H 	0.76840 0.93400 0.20570 -0.04000
C 	C 	0.87230 0.97760 0.12689 -0.18200
H 	H 	0.83070 0.03830 0.11060 0.06600
C 	C 	0.97010 0.95050 0.09411 0.11500
C 	C 	0.02770 0.86100 0.12057 -0.16500
H 	H 	0.09500 0.83990 0.09940 0.07000
C 	C 	0.98680 0.80290 0.17759 0.06900
H 	H 	0.02740 0.74230 0.19500 -0.05400
C 	C 	0.01310 0.01640 0.03211 -0.15400
H 	H 	0.08900 0.01070 0.03030 0.04200
H 	H 	0.98430 0.08910 0.03460 0.06200
N 	N 	0.75640 0.64310 0.26369 -0.30300
C 	C 	0.74330 0.54960 0.29787 0.07800
H 	H 	0.77870 0.52550 0.33580 -0.05200
C 	C 	0.68020 0.48800 0.27931 -0.17600
H 	H 	0.67400 0.42200 0.30380 0.07300
C 	C 	0.62590 0.52180 0.22509 0.11700
C 	C 	0.63990 0.61890 0.19016 -0.17700
H 	H 	0.60440 0.64540 0.15270 0.06400
C 	C 	0.70510 0.67550 0.21032 0.08700
H 	H 	0.71450 0.74070 0.18550 -0.05200
C 	C 	0.55590 0.45610 0.20480 -0.14800
H 	H 	0.48590 0.49500 0.20400 0.06100
H 	H 	0.55080 0.39450 0.23860 0.05900
Zn	Zn	0.29404 0.17530 0.03335 1.13100
N 	N 	0.40112 0.24010 0.06589 -0.31600
C 	C 	0.40270 0.23920 0.13173 0.07900
H 	H 	0.35860 0.19900 0.16250 -0.04900
C 	C 	0.46520 0.29390 0.15661 -0.18100
H 	H 	0.46550 0.28900 0.20360 0.07000
C 	C 	0.52820 0.35660 0.11285 0.12000
C 	C 	0.52890 0.35380 0.04470 -0.18600
H 	H 	0.57300 0.39250 0.01280 0.07800
C 	C 	0.46670 0.29590 0.02335 0.07900
H 	H 	0.46950 0.29470 0.97650 -0.05500
C 	C 	0.59470 0.42260 0.13605 -0.15800
H 	H 	0.60010 0.48470 0.10270 0.06500
H 	H 	0.66490 0.38440 0.13720 0.06500
N 	N 	0.21170 0.10950 0.11876 -0.30100
C 	C 	0.24740 0.01550 0.14729 0.06300
H 	H 	0.31220 0.98320 0.12860 -0.06200
C 	C 	0.19460 0.96390 0.20240 -0.17200
H 	H 	0.22380 0.89830 0.22170 0.06500
C 	C 	0.09970 0.00740 0.22945 0.10800
C 	C 	0.06210 0.10490 0.20083 -0.17800
H 	H 	0.99740 0.13820 0.21880 0.08400
C 	C 	0.11960 0.15320 0.14592 0.08300
H 	H 	0.09290 0.21980 0.12670 -0.03000
C 	C 	0.03910 0.95280 0.28900 -0.14500
H 	H 	0.05650 0.87770 0.28900 0.03600
H 	H 	0.96450 0.97110 0.28570 0.05200
N 	N 	0.86280 0.85952 0.52516 -0.29800
C 	C 	0.94400 0.80020 0.49663 0.07600
H 	H 	0.95690 0.73020 0.51520 -0.04100
C 	C 	0.00950 0.83640 0.44151 -0.18100
H 	H 	0.06600 0.79190 0.42280 0.06100
C 	C 	0.99170 0.93870 0.41383 0.09900
C 	C 	0.90670 0.99900 0.44204 -0.16800
H 	H 	0.89060 0.06850 0.42330 0.07700
C 	C 	0.84510 0.95810 0.49741 0.07400
H 	H 	0.78800 0.00120 0.51670 -0.05100
C 	C 	0.06260 0.98150 0.35438 -0.13100
H 	H 	0.13510 0.95470 0.36060 0.03100
H 	H 	0.05460 0.05720 0.35180 0.03200
N 	N 	0.19449 0.29569 0.99581 -0.30300
C 	C 	0.21370 0.39360 0.98905 0.08500
H 	H 	0.27060 0.40770 0.00800 -0.03400
C 	C 	0.15430 0.47430 0.95583 -0.18200
H 	H 	0.17120 0.54210 0.95150 0.08000
C 	C 	0.06960 0.45550 0.92873 0.13300
C 	C 	0.04700 0.35570 0.93854 -0.18600
H 	H 	0.98790 0.34020 0.92270 0.08000
C 	C 	0.11080 0.27840 0.97153 0.08300
H 	H 	0.09460 0.21020 0.97720 -0.04400
C 	C 	0.00740 0.53820 0.88697 -0.17000
H 	H 	0.01460 0.60640 0.89820 0.07300
H 	H 	0.93350 0.52890 0.89640 0.06900
Zn	Zn	0.76753 0.81168 0.60981 1.13700
N 	N 	0.86130 0.72516 0.67345 -0.30200
C 	C 	0.96410 0.72420 0.66653 0.07600
H 	H 	0.99580 0.76630 0.62960 -0.03300
C 	C 	0.02570 0.66450 0.71097 -0.17200
H 	H 	0.09800 0.66650 0.70460 0.07300
C 	C 	0.98130 0.60170 0.76490 0.09800
C 	C 	0.87510 0.60290 0.77129 -0.17200
H 	H 	0.84150 0.56080 0.80730 0.07200
C 	C 	0.81810 0.66480 0.72552 0.07300
H 	H 	0.74550 0.66470 0.73110 -0.04600
C 	C 	0.04600 0.53220 0.81274 -0.13100
H 	H 	0.11730 0.54960 0.80320 0.06100
H 	H 	0.04850 0.46050 0.80410 0.03500
N 	N 	0.68345 0.71200 0.58438 -0.30500
C 	C 	0.72760 0.64310 0.54251 0.08500
H 	H 	0.79730 0.64560 0.52330 -0.05200
C 	C 	0.67620 0.56970 0.52667 -0.18300
H 	H 	0.71080 0.52220 0.49770 0.07100
C 	C 	0.57320 0.56470 0.55305 0.12000
C 	C 	0.52720 0.63790 0.59465 -0.17900
H 	H 	0.45660 0.63900 0.61260 0.07500
C 	C 	0.58330 0.70830 0.60983 0.08200
H 	H 	0.55060 0.75610 0.63920 -0.05300
C 	C 	0.51450 0.48590 0.53599 -0.15700
H 	H 	0.45090 0.48150 0.56820 0.06600
H 	H 	0.55710 0.41790 0.53990 0.06400
Zn	Zn	0.15692 0.26471 0.70476 1.13600
N 	N 	0.26527 0.18062 0.64686 -0.30400
C 	C 	0.26710 0.07990 0.64516 0.07900
H 	H 	0.21230 0.04640 0.67020 -0.03500
C 	C 	0.34620 0.02260 0.60830 -0.17600
H 	H 	0.34530 0.95120 0.60850 0.07400
C 	C 	0.42590 0.07060 0.57129 0.09900
C 	C 	0.42270 0.17510 0.57186 -0.17500
H 	H 	0.47570 0.21070 0.54630 0.07700
C 	C 	0.34170 0.22740 0.61001 0.07300
H 	H 	0.34040 0.29900 0.61000 -0.03800
C 	C 	0.51370 0.00840 0.53250 -0.13600
H 	H 	0.53140 0.94120 0.55950 0.02900
H 	H 	0.57530 0.04480 0.52440 0.04200
N 	N 	0.10859 0.17129 0.79035 -0.29800
C 	C 	0.16420 0.08510 0.81608 0.08000
H 	H 	0.23160 0.06600 0.79430 -0.04000
C 	C 	0.12770 0.02240 0.87311 -0.18200
H 	H 	0.16930 0.96170 0.88940 0.06600
C 	C 	0.02990 0.04950 0.90589 0.11500
C 	C 	0.97230 0.13900 0.87943 -0.16500
H 	H 	0.90500 0.16010 0.90060 0.07000
C 	C 	0.01320 0.19710 0.82241 0.06900
H 	H 	0.97260 0.25770 0.80500 -0.05400
C 	C 	0.98690 0.98360 0.96789 -0.15400
H 	H 	0.91100 0.98930 0.96970 0.04200
H 	H 	0.01570 0.91090 0.96540 0.06200
N 	N 	0.24360 0.35690 0.73631 -0.30300
C 	C 	0.25670 0.45040 0.70213 0.07800
H 	H 	0.22130 0.47450 0.66420 -0.05200
C 	C 	0.31980 0.51200 0.72069 -0.17600
H 	H 	0.32600 0.57800 0.69620 0.07300
C 	C 	0.37410 0.47820 0.77491 0.11700
C 	C 	0.36010 0.38110 0.80984 -0.17700
H 	H 	0.39560 0.35460 0.84730 0.06400
C 	C 	0.29490 0.32450 0.78968 0.08700
H 	H 	0.28550 0.25930 0.81450 -0.05200
C 	C 	0.44410 0.54390 0.79520 -0.14800
H 	H 	0.51410 0.50500 0.79600 0.06100
H 	H 	0.44920 0.60550 0.76140 0.05900
Zn	Zn	0.70596 0.82470 0.96664 1.13100
N 	N 	0.59888 0.75990 0.93411 -0.31600
C 	C 	0.59730 0.76080 0.86827 0.07900
H 	H 	0.64140 0.80100 0.83750 -0.04900
C 	C 	0.53480 0.70610 0.84339 -0.18100
H 	H 	0.53450 0.71100 0.79640 0.07000
C 	C 	0.47180 0.64340 0.88715 0.12000
C 	C 	0.47110 0.64620 0.95530 -0.18600
H 	H 	0.42700 0.60750 0.98720 0.07800
C 	C 	0.53330 0.70410 0.97665 0.07900
H 	H 	0.53050 0.70530 0.02350 -0.05500
C 	C 	0.40530 0.57740 0.86395 -0.15800
H 	H 	0.39990 0.51530 0.89730 0.06500
H 	H 	0.33510 0.61560 0.86280 0.06500
N 	N 	0.78830 0.89050 0.88124 -0.30100
C 	C 	0.75260 0.98450 0.85271 0.06300
H 	H 	0.68780 0.01680 0.87140 -0.06200
C 	C 	0.80540 0.03610 0.79760 -0.17200
H 	H 	0.77620 0.10170 0.77830 0.06500
C 	C 	0.90030 0.99260 0.77055 0.10800
C 	C 	0.93790 0.89510 0.79917 -0.17800
H 	H 	0.00260 0.86180 0.78120 0.08400
C 	C 	0.88040 0.84680 0.85408 0.08300
H 	H 	0.90710 0.78020 0.87330 -0.03000
C 	C 	0.96090 0.04720 0.71100 -0.14500
H 	H 	0.94350 0.12230 0.71100 0.03600
H 	H 	0.03550 0.02890 0.71430 0.05200
N 	N 	0.13720 0.14048 0.47484 -0.29800
C 	C 	0.05600 0.19980 0.50337 0.07600
H 	H 	0.04310 0.26980 0.48480 -0.04100
C 	C 	0.99050 0.16360 0.55849 -0.18100
H 	H 	0.93400 0.20810 0.57720 0.06100
C 	C 	0.00830 0.06130 0.58617 0.09900
C 	C 	0.09330 0.00100 0.55796 -0.16800
H 	H 	0.10940 0.93150 0.57670 0.07700
C 	C 	0.15490 0.04190 0.50259 0.07400
H 	H 	0.21200 0.99880 0.48330 -0.05100
C 	C 	0.93740 0.01850 0.64562 -0.13100
H 	H 	0.86490 0.04530 0.63940 0.03100
H 	H 	0.94540 0.94280 0.64820 0.03200
N 	N 	0.80551 0.70431 0.00419 -0.30300
C 	C 	0.78630 0.60640 0.01095 0.08500
H 	H 	0.72940 0.59230 0.99200 -0.03400
C 	C 	0.84570 0.52570 0.04417 -0.18200
H 	H 	0.82880 0.45790 0.04850 0.08000
C 	C 	0.93040 0.54450 0.07127 0.13300
C 	C 	0.95300 0.64430 0.06146 -0.18600
H 	H 	0.01210 0.65980 0.07730 0.08000
C 	C 	0.88920 0.72160 0.02847 0.08300
H 	H 	0.90540 0.78980 0.02280 -0.04400
C 	C 	0.99260 0.46180 0.11303 -0.17000
H 	H 	0.98540 0.39360 0.10180 0.07300
H 	H 	0.06650 0.47110 0.10360 0.06900
Zn	Zn	0.23247 0.18832 0.39019 1.13700
N 	N 	0.13870 0.27484 0.32655 -0.30200
C 	C 	0.03590 0.27580 0.33347 0.07600
H 	H 	0.00420 0.23370 0.37040 -0.03300
C 	C 	0.97430 0.33550 0.28903 -0.17200
H 	H 	0.90200 0.33350 0.29540 0.07300
C 	C 	0.01870 0.39830 0.23510 0.09800
C 	C 	0.12490 0.39710 0.22871 -0.17200
H 	H 	0.15850 0.43920 0.19270 0.07200
C 	C 	0.18190 0.33520 0.27448 0.07300
H 	H 	0.25450 0.33530 0.26890 -0.04600
C 	C 	0.95400 0.46780 0.18726 -0.13100
H 	H 	0.88270 0.45040 0.19680 0.06100
H 	H 	0.95150 0.53950 0.19590 0.03500
N 	N 	0.31655 0.28800 0.41562 -0.30500
C 	C 	0.27240 0.35690 0.45749 0.08500
H 	H 	0.20270 0.35440 0.47670 -0.05200
C 	C 	0.32380 0.43030 0.47333 -0.18300
H 	H 	0.28920 0.47780 0.50230 0.07100
C 	C 	0.42680 0.43530 0.44695 0.12000
C 	C 	0.47280 0.36210 0.40535 -0.17900
H 	H 	0.54340 0.36100 0.38740 0.07500
C 	C 	0.41670 0.29170 0.39017 0.08200
H 	H 	0.44940 0.24390 0.36080 -0.05300
C 	C 	0.48550 0.51410 0.46401 -0.15700
H 	H 	0.54910 0.51850 0.43180 0.06600
H 	H 	0.44290 0.58210 0.46010 0.06400
