data_crystal

_cell_length_a 13.85000
_cell_length_b 12.77000
_cell_length_c 6.93900
_cell_angle_alpha 90.00000
_cell_angle_beta  91.45000
_cell_angle_gamma 90.00000

_symmetry_space_group_name_	'P 1'
_symmetry_space_group_name_H-M	'P 1'

loop_
_symmetry_equiv_pos_as_xyz
  x,y,z

loop_
_atom_site_label
_atom_site_type_symbol
_atom_site_fract_x
_atom_site_fract_y
_atom_site_fract_z
_atom_site_charge
C 	C 	0.94720 0.65920 0.46240 0.20100
H 	H 	0.94560 0.65500 0.32280 -0.07500
H 	H 	0.91390 0.59840 0.51200 -0.00600
C 	C 	0.80320 0.77100 0.42240 -0.11900
H 	H 	0.81450 0.78370 0.28700 -0.00500
H 	H 	0.77270 0.83300 0.47390 0.02900
C 	C 	0.73510 0.68020 0.43900 0.10100
C 	C 	0.69740 0.62870 0.28160 -0.18300
H 	H 	0.71270 0.65130 0.15860 0.01900
C 	C 	0.63620 0.54270 0.30260 0.08200
H 	H 	0.61430 0.50810 0.19180 -0.07400
C 	C 	0.64520 0.55470 0.62340 0.08600
H 	H 	0.63090 0.52860 0.74460 0.02200
C 	C 	0.70610 0.64280 0.61340 -0.16300
H 	H 	0.72690 0.67590 0.72640 0.10100
N 	N 	0.89740 0.75550 0.52370 -0.25700
H 	H 	0.88510 0.74790 0.65120 0.08600
N 	N 	0.60740 0.50740 0.47200 -0.25500
O 	O 	0.97750 0.88330 0.18980 -0.63500
C 	C 	0.44720 0.15920 0.46240 -0.06600
H 	H 	0.44560 0.15500 0.32280 -0.04500
H 	H 	0.41390 0.09840 0.51200 0.04400
C 	C 	0.30320 0.27100 0.42240 -0.12100
H 	H 	0.31450 0.28370 0.28700 -0.01400
H 	H 	0.27270 0.33300 0.47390 0.02700
C 	C 	0.23510 0.18020 0.43900 0.09100
C 	C 	0.19740 0.12870 0.28160 -0.18800
H 	H 	0.21270 0.15130 0.15860 0.00600
C 	C 	0.13620 0.04270 0.30260 0.06400
H 	H 	0.11430 0.00810 0.19180 -0.08900
C 	C 	0.14520 0.05470 0.62340 0.07000
H 	H 	0.13090 0.02860 0.74460 0.02000
C 	C 	0.20610 0.14280 0.61340 -0.16800
H 	H 	0.22690 0.17590 0.72640 0.09000
N 	N 	0.39740 0.25550 0.52370 -0.24900
H 	H 	0.38510 0.24790 0.65120 0.04800
N 	N 	0.10740 0.00740 0.47200 -0.26200
O 	O 	0.47750 0.38330 0.18980 -0.75300
C 	C 	0.05280 0.65920 0.53760 -0.39400
H 	H 	0.05440 0.65500 0.67720 0.05700
H 	H 	0.08610 0.59840 0.48800 0.08800
C 	C 	0.19680 0.77100 0.57760 -0.18300
H 	H 	0.18550 0.78370 0.71300 0.05000
H 	H 	0.22730 0.83300 0.52610 0.03900
C 	C 	0.26490 0.68020 0.56100 0.13700
C 	C 	0.30260 0.62870 0.71840 -0.19800
H 	H 	0.28730 0.65130 0.84140 0.11400
C 	C 	0.36380 0.54270 0.69740 0.10000
H 	H 	0.38570 0.50810 0.80820 0.00400
C 	C 	0.35480 0.55470 0.37660 0.08400
H 	H 	0.36910 0.52860 0.25540 -0.05900
C 	C 	0.29390 0.64280 0.38660 -0.20000
H 	H 	0.27310 0.67590 0.27360 0.02000
N 	N 	0.10260 0.75550 0.47630 -0.20800
H 	H 	0.11490 0.74790 0.34880 -0.04100
N 	N 	0.39260 0.50740 0.52800 -0.25800
O 	O 	0.02250 0.88330 0.81020 -0.72100
C 	C 	0.55280 0.15920 0.53760 -0.13600
H 	H 	0.55440 0.15500 0.67720 0.02900
H 	H 	0.58610 0.09840 0.48800 0.05600
C 	C 	0.69680 0.27100 0.57760 -0.19900
H 	H 	0.68550 0.28370 0.71300 0.07300
H 	H 	0.72730 0.33300 0.52610 0.07500
C 	C 	0.76490 0.18020 0.56100 0.16300
C 	C 	0.80260 0.12870 0.71840 -0.18600
H 	H 	0.78730 0.15130 0.84140 0.13300
C 	C 	0.86380 0.04270 0.69740 0.12600
H 	H 	0.88570 0.00810 0.80820 0.05300
C 	C 	0.85480 0.05470 0.37660 0.11100
H 	H 	0.86910 0.02860 0.25540 -0.02500
C 	C 	0.79390 0.14280 0.38660 -0.19000
H 	H 	0.77310 0.17590 0.27360 0.04300
N 	N 	0.60260 0.25550 0.47630 -0.22000
H 	H 	0.61490 0.24790 0.34880 -0.00100
N 	N 	0.89260 0.00740 0.52800 -0.20600
O 	O 	0.52250 0.38330 0.81020 -0.61200
Zn	Zn	0.00000 0.88497 0.50000 1.12200
Zn	Zn	0.50000 0.38497 0.50000 1.19200
Cr	Cr	0.00000 0.80964 -0.00000 1.31500
Cr	Cr	0.50000 0.30964 -0.00000 1.39300
