data_crystal

_cell_length_a    12.90336
_cell_length_b    7.32991
_cell_length_c    16.33730
_cell_angle_alpha 90.74394
_cell_angle_beta  109.80768
_cell_angle_gamma 91.33630

_space_group_name_Hall 'P 1'
_space_group_name_H-M_alt 'P 1'

loop_
_symmetry_equiv_pos_as_xyz
 'x,y,z'

loop_
_atom_site_label
_atom_site_type_symbol
_atom_site_fract_x
_atom_site_fract_y
_atom_site_fract_z
_atom_site_charge
Ni         Ni      0.00178   0.49912   0.00155  0.9675600000
Ni         Ni      0.25235   0.00104   0.00152  1.0381100000
H          H       0.21975   0.82881   0.26887  0.1360800000
H          H       0.28047   0.17139   0.23220  0.1362100000
C          C       0.28598   0.67110   0.41997  0.5882800000
C          C       0.26926   0.57720   0.33414 -0.0497300000
C          C       0.28619   0.38976   0.32445 -0.0415600000
C          C       0.23330   0.68482   0.26006 -0.0936300000
C          C       0.31822   0.26366   0.39975  0.6019800000
C          C       0.21719   0.32970   0.08170  0.5886700000
C          C       0.23171   0.42322   0.16718 -0.0512800000
C          C       0.21468   0.61070   0.17682 -0.0449100000
C          C       0.26678   0.31528   0.24114 -0.0944200000
C          C       0.18414   0.73722   0.10163  0.6023800000
O          O       0.21478   0.78950   0.41851 -0.5265100000
O          O       0.36751   0.63902   0.48829 -0.5643400000
O          O       0.41219   0.27851   0.45991 -0.5397600000
O          O       0.24745   0.13848   0.39733 -0.5121800000
O          O       0.28957   0.21294   0.08382 -0.5278700000
O          O       0.13571   0.36033   0.01311 -0.5620000000
O          O       0.09059   0.72157   0.04096 -0.5385600000
O          O       0.25531   0.86225   0.10472 -0.5125000000
Ni         Ni      0.50178   0.49912   0.00155  0.9675600000
Ni         Ni      0.75235   0.00104   0.00152  1.0381100000
H          H       0.71976   0.82881   0.26887  0.1360800000
H          H       0.78048   0.17139   0.23220  0.1362100000
C          C       0.78598   0.67110   0.41997  0.5882800000
C          C       0.76926   0.57720   0.33414 -0.0497300000
C          C       0.78619   0.38976   0.32445 -0.0415600000
C          C       0.73330   0.68482   0.26006 -0.0936300000
C          C       0.81822   0.26366   0.39975  0.6019800000
C          C       0.71719   0.32970   0.08170  0.5886700000
C          C       0.73172   0.42322   0.16718 -0.0512800000
C          C       0.71468   0.61070   0.17682 -0.0449100000
C          C       0.76678   0.31528   0.24114 -0.0944200000
C          C       0.68414   0.73722   0.10163  0.6023800000
O          O       0.71479   0.78950   0.41851 -0.5265100000
O          O       0.86750   0.63902   0.48829 -0.5643400000
O          O       0.91219   0.27851   0.45991 -0.5397600000
O          O       0.74745   0.13848   0.39733 -0.5121800000
O          O       0.78957   0.21294   0.08382 -0.5278700000
O          O       0.63571   0.36033   0.01311 -0.5620000000
O          O       0.59059   0.72157   0.04096 -0.5385600000
O          O       0.75531   0.86225   0.10472 -0.5125000000
Ni         Ni      0.00178   0.49912   0.50155  0.9675600000
Ni         Ni      0.25235   0.00104   0.50152  1.0381100000
H          H       0.21975   0.82881   0.76887  0.1360800000
H          H       0.28047   0.17139   0.73220  0.1362100000
C          C       0.28598   0.67110   0.91997  0.5882800000
C          C       0.26926   0.57720   0.83414 -0.0497300000
C          C       0.28619   0.38976   0.82445 -0.0415600000
C          C       0.23330   0.68482   0.76006 -0.0936300000
C          C       0.31821   0.26366   0.89975  0.6019800000
C          C       0.21719   0.32970   0.58170  0.5886700000
C          C       0.23171   0.42322   0.66718 -0.0512800000
C          C       0.21468   0.61070   0.67682 -0.0449100000
C          C       0.26678   0.31528   0.74114 -0.0944200000
C          C       0.18414   0.73722   0.60163  0.6023800000
O          O       0.21478   0.78950   0.91851 -0.5265100000
O          O       0.36750   0.63902   0.98828 -0.5643400000
O          O       0.41219   0.27851   0.95991 -0.5397600000
O          O       0.24745   0.13848   0.89733 -0.5121800000
O          O       0.28957   0.21294   0.58383 -0.5278700000
O          O       0.13571   0.36033   0.51311 -0.5620000000
O          O       0.09059   0.72157   0.54096 -0.5385600000
O          O       0.25531   0.86225   0.60472 -0.5125000000
Ni         Ni      0.50178   0.49912   0.50155  0.9675600000
Ni         Ni      0.75235   0.00104   0.50152  1.0381100000
H          H       0.71975   0.82881   0.76887  0.1360800000
H          H       0.78047   0.17139   0.73220  0.1362100000
C          C       0.78598   0.67110   0.91997  0.5882800000
C          C       0.76926   0.57720   0.83414 -0.0497300000
C          C       0.78619   0.38976   0.82445 -0.0415600000
C          C       0.73330   0.68482   0.76006 -0.0936300000
C          C       0.81822   0.26366   0.89975  0.6019800000
C          C       0.71719   0.32970   0.58170  0.5886700000
C          C       0.73172   0.42322   0.66718 -0.0512800000
C          C       0.71469   0.61070   0.67682 -0.0449100000
C          C       0.76678   0.31528   0.74114 -0.0944200000
C          C       0.68414   0.73722   0.60163  0.6023800000
O          O       0.71478   0.78950   0.91851 -0.5265100000
O          O       0.86750   0.63902   0.98828 -0.5643400000
O          O       0.91219   0.27851   0.95991 -0.5397600000
O          O       0.74745   0.13848   0.89733 -0.5121800000
O          O       0.78957   0.21294   0.58383 -0.5278700000
O          O       0.63571   0.36033   0.51311 -0.5620000000
O          O       0.59059   0.72157   0.54096 -0.5385600000
O          O       0.75531   0.86225   0.60472 -0.5125000000
