data_crystal

_cell_length_a 34.19160
_cell_length_b 15.20180
_cell_length_c 8.26800
_cell_angle_alpha 99.02330
_cell_angle_beta  91.45950
_cell_angle_gamma 87.32500

_symmetry_space_group_name_	'P 1'
_symmetry_space_group_name_H-M	'P 1'

loop_
_symmetry_equiv_pos_as_xyz
  x,y,z

loop_
_atom_site_label
_atom_site_type_symbol
_atom_site_fract_x
_atom_site_fract_y
_atom_site_fract_z
_atom_site_charge
Eu	Eu	0.39854 0.73638 0.14256 1.89200
O 	O 	0.33284 0.88317 0.15867 -0.22200
C 	C 	0.34418 0.58025 0.06829 0.31700
O 	O 	0.39528 0.90099 -0.04783 -0.15300
O 	O 	0.44335 0.83273 0.08410 -0.38400
O 	O 	0.42600 0.55333 0.24833 -0.24000
O 	O 	0.35879 0.58515 -0.06279 -0.28700
O 	O 	0.35388 0.64137 0.20531 -0.41500
O 	O 	0.37492 0.84042 0.35011 -0.32900
C 	C 	0.34610 0.89806 0.29835 0.25600
O 	O 	0.44256 0.69590 0.33166 -0.40300
C 	C 	0.44582 0.60510 0.33930 0.30400
C 	C 	0.42441 0.90880 0.04079 0.23100
Eu	Eu	0.89095 0.74159 0.73989 1.87000
O 	O 	0.84760 0.91416 0.85172 -0.28700
C 	C 	0.82518 0.63743 0.86620 0.31600
O 	O 	0.97872 0.80325 0.77768 -0.28400
O 	O 	0.92195 0.86383 0.69246 -0.43100
O 	O 	0.93541 0.56999 0.62152 -0.22300
O 	O 	0.81361 0.71482 0.90336 -0.25600
O 	O 	0.86042 0.61805 0.78573 -0.39900
O 	O 	0.83520 0.80496 0.64249 -0.38500
C 	C 	0.83279 0.89368 0.71634 0.30600
O 	O 	0.90404 0.67016 0.48345 -0.35400
C 	C 	0.91917 0.58470 0.49460 0.21600
C 	C 	0.95777 0.87012 0.77447 0.31400
Eu	Eu	0.11489 0.32046 0.26925 1.87800
O 	O 	0.18771 0.22583 0.13196 -0.26100
C 	C 	0.18571 0.44120 0.34800 0.23000
O 	O 	0.03052 0.28117 -0.09702 -0.11400
O 	O 	0.05512 0.28101 0.15696 -0.37300
O 	O 	0.02666 0.31530 0.60286 -0.15200
O 	O 	0.16975 0.47080 0.23289 -0.23900
O 	O 	0.17263 0.36376 0.39522 -0.35600
O 	O 	0.13749 0.17609 0.25785 -0.33900
C 	C 	0.17536 0.16702 0.19852 0.32600
O 	O 	0.08887 0.31428 0.51856 -0.37200
C 	C 	0.05042 0.34812 0.52495 0.28200
C 	C 	0.05299 0.24514 -0.00849 0.19200
Eu	Eu	0.63943 0.21026 0.76856 1.91500
O 	O 	0.68906 0.03927 0.71370 -0.21500
C 	C 	0.66614 0.39177 0.90792 0.21700
O 	O 	0.57076 0.17831 0.95439 -0.25500
O 	O 	0.61223 0.08106 0.80448 -0.39500
O 	O 	0.56936 0.34350 0.81536 -0.20200
O 	O 	0.66040 0.35358 1.02408 -0.24400
O 	O 	0.66571 0.34301 0.75017 -0.36100
O 	O 	0.67154 0.13782 0.54388 -0.35400
C 	C 	0.68523 0.05373 0.57288 0.21900
O 	O 	0.58775 0.23977 0.60173 -0.32900
C 	C 	0.56001 0.29874 0.68559 0.24100
C 	C 	0.58199 0.10087 0.91502 0.30800
C 	C 	0.31693 0.50942 0.08364 -0.05500
C 	C 	0.30847 0.44311 -0.04977 0.05700
C 	C 	0.28343 0.37454 -0.03153 -0.02200
C 	C 	0.27463 0.30388 0.82964 0.29600
O 	O 	0.29155 0.29995 0.70045 -0.08700
O 	O 	0.24718 0.24091 0.84667 -0.25900
C 	C 	0.26708 0.37284 0.12175 0.05400
C 	C 	0.27521 0.43839 0.25571 -0.03500
C 	C 	0.25799 0.43499 0.42143 0.45200
F 	F 	0.25284 0.34723 0.43995 -0.39200
F 	F 	0.28411 0.46971 0.54323 -0.37800
C 	C 	0.21866 0.48900 0.44385 0.36500
F 	F 	0.20921 0.50206 0.60795 -0.36000
F 	F 	0.22222 0.57197 0.39767 -0.39200
C 	C 	0.29976 0.50699 0.23498 0.07200
H 	H 	0.32154 0.44449 -0.16726 0.12000
H 	H 	0.24330 0.19677 0.74276 0.22000
H 	H 	0.24819 0.32014 0.13822 0.09300
H 	H 	0.30571 0.55822 0.33801 0.10200
C 	C 	0.81544 0.96335 0.62792 -0.05600
C 	C 	0.83257 0.04654 0.64394 0.02200
C 	C 	0.81752 0.11257 0.55548 -0.07000
C 	C 	0.83778 0.19707 0.56105 0.29400
O 	O 	0.87078 0.20430 0.61998 -0.19500
O 	O 	0.81941 0.26840 0.49710 -0.28000
C 	C 	0.78358 0.09647 0.45815 0.05100
C 	C 	0.76588 0.01352 0.44118 -0.07200
C 	C 	0.72940 -0.00408 0.33381 0.44300
F 	F 	0.72019 0.06675 0.25044 -0.40100
F 	F 	0.73701 0.92140 0.21754 -0.34200
C 	C 	0.69337 -0.02031 0.43220 0.35900
F 	F 	0.66081 -0.02648 0.32862 -0.35100
F 	F 	0.69862 0.89929 0.49083 -0.34500
C 	C 	0.78291 0.94630 0.52308 0.07500
H 	H 	0.85833 0.05882 0.72214 0.05800
H 	H 	0.83606 0.32268 0.51024 0.20800
H 	H 	0.77144 0.14829 0.39333 0.09200
H 	H 	0.77063 0.88098 0.50714 0.11100
C 	C 	0.20095 0.08935 0.22267 -0.05500
C 	C 	0.18510 0.00692 0.23007 0.03500
C 	C 	0.20934 0.93418 0.26215 -0.04000
C 	C 	0.19269 0.84620 0.26376 0.30700
O 	O 	0.15760 0.83700 0.24326 -0.18300
O 	O 	0.21723 0.77320 0.28754 -0.26400
C 	C 	0.24947 0.94612 0.29495 0.07900
C 	C 	0.26573 0.02933 0.29132 -0.06900
C 	C 	0.30820 1.04985 0.33632 0.48500
F 	F 	0.32651 1.06550 0.19669 -0.33800
F 	F 	0.30799 0.12852 0.44694 -0.35000
C 	C 	0.33296 0.97951 0.41627 0.36400
F 	F 	0.36649 1.01934 0.48384 -0.27500
F 	F 	0.31276 0.95375 0.54305 -0.36900
C 	C 	0.24128 0.09904 0.24782 0.07600
H 	H 	0.15396 -0.00072 0.20887 0.11000
H 	H 	0.20233 0.71687 1.28413 0.21900
H 	H 	0.26758 0.89038 0.32370 0.07800
H 	H 	0.25350 0.16293 0.24190 0.11200
C 	C 	0.80240 0.56383 0.90682 -0.05800
C 	C 	0.82008 0.47814 0.90063 0.05800
C 	C 	0.79920 0.40794 0.94309 -0.05600
C 	C 	0.81864 0.31914 0.94590 0.29500
O 	O 	0.85431 0.31013 0.94147 -0.17600
O 	O 	0.79635 0.24560 0.95567 -0.29300
C 	C 	0.75998 0.42395 0.98963 0.05100
C 	C 	0.74183 0.50936 0.99762 -0.03400
C 	C 	0.70055 0.52717 1.06191 0.43200
F 	F 	0.69751 0.48981 0.20341 -0.36100
F 	F 	0.69316 0.61821 1.10549 -0.35700
C 	C 	0.66893 0.49156 0.93435 0.37400
F 	F 	0.63290 0.52764 0.98997 -0.36800
F 	F 	0.67581 0.51926 0.78608 -0.37200
C 	C 	0.76326 0.57882 0.95469 0.06800
H 	H 	0.85042 0.46637 0.86537 0.09500
H 	H 	0.81300 0.18878 0.95751 0.18600
H 	H 	0.74391 0.37077 1.02594 0.06600
H 	H 	0.74967 0.64493 0.95889 0.11700
C 	C 	0.47392 0.57295 0.45777 -0.06500
C 	C 	0.50536 0.62557 0.51585 0.04100
C 	C 	0.53276 0.59779 0.62817 -0.05600
C 	C 	0.56651 0.65294 0.68316 0.29500
O 	O 	0.56694 0.72968 0.65679 -0.18500
O 	O 	0.59840 0.61672 0.76201 -0.23600
C 	C 	0.52808 0.51675 0.68553 0.04200
C 	C 	0.49636 0.46329 0.63130 -0.03500
C 	C 	0.49071 0.37741 0.70006 0.45300
F 	F 	0.49606 0.39251 0.86874 -0.38400
F 	F 	0.45240 0.35208 0.67074 -0.33800
C 	C 	0.51818 0.29894 0.62098 0.37200
F 	F 	0.50288 0.21971 0.64770 -0.30500
F 	F 	0.51868 0.29830 0.45331 -0.35000
C 	C 	0.46957 0.49174 0.51512 0.06200
H 	H 	0.50909 0.68767 0.47040 0.07800
H 	H 	0.62053 0.65927 0.78499 0.23700
H 	H 	0.54872 0.49624 0.77510 0.09800
H 	H 	0.44488 0.45195 0.47149 0.11800
C 	C 	0.96916 0.95666 0.86500 -0.15600
C 	C 	0.93986 1.01660 -0.06252 0.14200
C 	C 	0.94960 0.09571 0.03862 -0.12100
C 	C 	0.91822 0.15719 0.11819 0.33000
O 	O 	0.88404 0.13812 0.09935 -0.21700
O 	O 	0.92780 0.23747 0.21438 -0.26200
C 	C 	0.98915 0.11475 0.06504 0.09200
C 	C 	1.01900 0.05793 -0.01430 -0.08900
C 	C 	0.06170 0.08058 0.01526 0.45200
F 	F 	0.06826 0.10278 0.18214 -0.41800
F 	F 	0.08587 1.00647 -0.03799 -0.36400
C 	C 	0.07348 0.15731 -0.07440 0.36700
F 	F 	0.11340 0.16697 -0.05865 -0.41500
F 	F 	0.06473 0.13496 0.75994 -0.38100
C 	C 	1.00849 0.97800 -0.11313 0.14100
H 	H 	0.90956 1.00011 0.91967 0.02100
H 	H 	0.90373 0.27292 0.26171 0.23100
H 	H 	0.99692 0.17326 0.14964 0.07700
H 	H 	0.03081 0.93189 -0.17279 0.09000
C 	C 	0.56434 0.02986 0.98786 -0.05600
C 	C 	0.58447 -0.05255 0.98841 0.03500
C 	C 	0.56901 0.88179 1.06773 -0.04000
C 	C 	0.59146 0.79687 1.07615 0.28700
O 	O 	0.62548 0.78759 1.03182 -0.13500
O 	O 	0.57418 0.72748 0.13622 -0.26800
C 	C 	0.53247 0.89896 0.14396 0.06800
C 	C 	0.51158 0.98078 0.14165 -0.01700
C 	C 	0.47305 1.00272 0.22970 0.46500
F 	F 	0.46785 0.94567 0.34212 -0.38100
F 	F 	0.47460 0.08782 0.31859 -0.31900
C 	C 	0.43729 1.00088 0.11030 0.37100
F 	F 	0.40613 1.04515 0.19577 -0.27900
F 	F 	0.44471 1.04603 -0.01786 -0.32600
C 	C 	0.52810 0.04600 0.06498 0.06800
H 	H 	0.61285 -0.06436 0.93168 0.09400
H 	H 	0.59274 0.67361 0.13817 0.24500
H 	H 	0.52074 0.84943 0.20800 0.09000
H 	H 	0.51288 0.11041 0.06802 0.14400
C 	C 	0.03760 0.42201 0.43742 -0.12400
C 	C 	0.06379 0.48762 0.41814 -0.00700
C 	C 	0.05168 0.55982 0.33905 -0.07700
C 	C 	0.07896 0.63022 0.32107 0.28700
O 	O 	0.11189 0.62896 0.38260 -0.19200
O 	O 	0.06725 0.69866 0.23374 -0.28100
C 	C 	0.01297 0.56523 0.27828 0.05000
C 	C 	0.98639 0.49948 0.29555 -0.06700
C 	C 	0.94490 0.50343 0.22491 0.45200
F 	F 	0.93923 0.57556 0.14162 -0.42000
F 	F 	0.93979 0.42695 0.11252 -0.37000
C 	C 	0.91310 0.50972 0.35596 0.36800
F 	F 	0.87688 0.52372 0.28342 -0.36200
F 	F 	0.91210 0.43036 0.41789 -0.39400
C 	C 	0.99921 0.42806 0.37551 0.07500
H 	H 	0.09331 0.48329 0.46791 0.00400
H 	H 	0.08852 0.74224 0.22821 0.20900
H 	H 	0.00361 0.62093 0.21767 0.08500
H 	H 	0.97949 0.37585 0.38723 0.09800
