data_crystal

_cell_length_a 35.84580
_cell_length_b 16.01700
_cell_length_c 13.67590
_cell_angle_alpha 90.19160
_cell_angle_beta  94.77730
_cell_angle_gamma 81.73860

_symmetry_space_group_name_	'P 1'
_symmetry_space_group_name_H-M	'P 1'

loop_
_symmetry_equiv_pos_as_xyz
  x,y,z

loop_
_atom_site_label
_atom_site_type_symbol
_atom_site_fract_x
_atom_site_fract_y
_atom_site_fract_z
_atom_site_charge
Eu	Eu	0.39443 0.72063 0.13480 1.91500
O 	O 	0.35452 0.85716 -0.00258 -0.17700
C 	C 	0.31970 0.65252 0.08857 0.30800
O 	O 	0.43290 0.75591 -0.04357 -0.22000
O 	O 	0.43852 0.80591 0.11076 -0.33500
O 	O 	0.46928 0.65822 0.24206 -0.26900
O 	O 	0.32334 0.69205 0.01491 -0.25200
O 	O 	0.34974 0.63686 0.16019 -0.41500
O 	O 	0.35144 0.83637 0.15969 -0.32300
C 	C 	0.33818 0.87649 0.07075 0.26000
O 	O 	0.41344 0.71226 0.29791 -0.37900
C 	C 	0.45087 0.67459 0.31258 0.30800
C 	C 	0.44713 0.80354 0.01328 0.26400
Eu	Eu	0.90262 0.65987 0.85243 1.92800
O 	O 	0.83651 0.74759 0.94463 -0.27100
C 	C 	0.85520 0.53304 0.92509 0.31200
O 	O 	0.92303 0.77805 1.01451 -0.26600
O 	O 	0.94643 0.74983 0.86785 -0.39700
O 	O 	0.93810 0.50148 0.76207 -0.20400
O 	O 	0.87793 0.54209 0.99429 -0.26500
O 	O 	0.85793 0.57207 0.83602 -0.40000
O 	O 	0.85814 0.76922 0.79806 -0.38600
C 	C 	0.83325 0.79003 0.86980 0.30600
O 	O 	0.91840 0.63112 0.69668 -0.33700
C 	C 	0.93774 0.54944 0.69254 0.25800
C 	C 	0.94324 0.79672 0.95321 0.29500
Eu	Eu	0.09427 0.30420 0.11379 1.90500
O 	O 	0.16339 0.22681 0.01072 -0.25900
C 	C 	0.15780 0.41516 0.16384 0.25200
O 	O 	0.02377 0.26408 0.00314 -0.21900
O 	O 	0.06484 0.18732 0.11373 -0.34200
O 	O 	0.02299 0.37227 0.21134 -0.27000
O 	O 	0.16111 0.37951 0.24340 -0.14000
O 	O 	0.12370 0.42113 0.10552 -0.36200
O 	O 	0.14937 0.22279 0.16848 -0.37000
C 	C 	0.17345 0.20336 0.09456 0.32300
O 	O 	0.08319 0.33040 0.27338 -0.37200
C 	C 	0.04539 0.36067 0.28371 0.31100
C 	C 	0.03672 0.19420 0.03635 0.25300
Eu	Eu	0.60480 0.28234 0.84818 1.95400
O 	O 	0.64174 0.10982 0.91072 -0.18500
C 	C 	0.67333 0.34982 0.95001 0.26000
O 	O 	0.56041 0.20151 0.99096 -0.26100
O 	O 	0.56170 0.19092 0.82666 -0.38500
O 	O 	0.57237 0.46036 0.78650 -0.18500
O 	O 	0.66820 0.29127 1.00207 -0.18300
O 	O 	0.64847 0.37278 0.86752 -0.33100
O 	O 	0.64791 0.18786 0.77722 -0.31800
C 	C 	0.65794 0.11639 0.83668 0.26400
O 	O 	0.58288 0.34076 0.69909 -0.32800
C 	C 	0.56730 0.42489 0.70840 0.26000
C 	C 	0.54952 0.16866 0.91545 0.30600
C 	C 	0.28350 0.62340 0.10206 -0.00800
N 	N 	0.25282 0.64477 0.03898 -0.01000
N 	N 	0.22307 0.61339 0.06521 0.00300
C 	C 	0.23067 0.56767 0.14871 0.04300
C 	C 	0.20095 0.52551 0.19249 0.45100
F 	F 	0.16928 0.58492 0.20073 -0.36600
F 	F 	0.21428 0.49500 0.28549 -0.36300
C 	C 	0.19039 0.45231 0.12755 0.37100
F 	F 	0.22122 0.38929 0.12681 -0.36900
F 	F 	0.18044 0.48081 0.03207 -0.36700
S 	S 	0.27634 0.56250 0.19947 0.20300
C 	C 	0.80360 0.86314 0.85612 -0.01200
N 	N 	0.79948 0.91240 0.77554 -0.02200
N 	N 	0.77189 -0.02389 0.77951 0.01500
C 	C 	0.75456 -0.02419 0.86302 0.06500
C 	C 	0.72337 0.04434 0.88639 0.44400
F 	F 	0.73722 0.12060 0.88667 -0.33300
F 	F 	0.71256 0.03056 0.97930 -0.35500
C 	C 	0.68886 0.04821 0.81066 0.37900
F 	F 	0.67522 -0.02852 0.80802 -0.33900
F 	F 	0.69933 0.06517 0.71825 -0.33400
S 	S 	0.77256 0.89452 0.94206 0.19700
C 	C 	0.21086 0.15453 0.11892 -0.00200
N 	N 	0.22281 0.13051 0.21163 0.00300
N 	N 	0.25679 1.08604 0.21819 -0.00100
C 	C 	0.27128 1.07551 0.13055 0.02500
C 	C 	0.30862 1.02139 0.11933 0.44000
F 	F 	0.32681 1.00212 0.21166 -0.35900
F 	F 	0.33101 0.06622 0.06790 -0.33700
C 	C 	0.30267 0.93952 0.06441 0.37500
F 	F 	0.29114 0.95830 -0.03329 -0.35900
F 	F 	0.27471 0.90272 0.10459 -0.36900
S 	S 	0.24229 0.12204 0.03398 0.24600
C 	C 	0.82482 0.48230 0.93619 -0.00700
N 	N 	0.82306 0.43726 1.01803 -0.00500
N 	N 	0.79339 0.39693 1.01272 0.01300
C 	C 	0.77201 0.41116 0.92712 0.04800
C 	C 	0.73757 0.36889 0.90277 0.44900
F 	F 	0.74855 0.28262 0.90952 -0.33300
F 	F 	0.72304 0.38881 0.80730 -0.36500
C 	C 	0.70684 0.39549 0.97354 0.38000
F 	F 	0.69501 0.48152 0.96573 -0.34500
F 	F 	0.72146 0.37667 1.06929 -0.33100
S 	S 	0.78877 0.47630 0.84739 0.21400
C 	C 	0.46778 0.65243 0.41218 -0.01200
N 	N 	0.44848 0.66983 0.49154 -0.01200
N 	N 	0.46838 0.64182 0.57335 0.00600
C 	C 	0.50319 0.60300 0.55747 0.04400
C 	C 	0.53072 0.56425 0.63994 0.45100
F 	F 	0.51316 0.57329 0.72682 -0.35800
F 	F 	0.56166 0.60739 0.64810 -0.34900
C 	C 	0.54408 0.46962 0.62184 0.37400
F 	F 	0.56598 0.46143 0.54265 -0.35700
F 	F 	0.51286 0.42886 0.60031 -0.36900
S 	S 	0.51279 0.60059 0.43685 0.21300
C 	C 	0.96375 0.86927 0.96787 0.02400
N 	N 	0.98279 0.89673 0.89677 -0.02100
N 	N 	-0.00190 0.96430 0.92294 0.00400
C 	C 	-0.00902 0.98944 1.01452 0.09900
C 	C 	0.00487 0.06590 0.06163 0.43300
F 	F 	0.03016 0.03906 0.14117 -0.36200
F 	F 	-0.02573 0.11763 0.09527 -0.36900
C 	C 	0.02419 0.11639 -0.01023 0.35400
F 	F 	-0.00079 0.14005 -0.09164 -0.35300
F 	F 	0.05580 0.06647 0.95880 -0.32300
S 	S 	0.96417 0.92801 0.07287 0.11000
C 	C 	0.52365 0.10566 0.91727 0.02800
N 	N 	0.51190 0.06734 0.83518 -0.00100
N 	N 	0.48869 1.01332 0.85234 -0.00500
C 	C 	0.48257 1.00952 0.94782 0.09700
C 	C 	0.45660 0.95318 -0.01521 0.39300
F 	F 	0.42232 0.96759 0.92843 -0.32200
F 	F 	0.45017 0.97315 0.08131 -0.36600
C 	C 	0.47374 0.85959 -0.02137 0.35700
F 	F 	0.50746 0.84474 0.03729 -0.36100
F 	F 	0.48106 0.83973 0.88253 -0.31300
S 	S 	0.50600 0.07504 0.02182 0.15900
C 	C 	0.03294 0.37809 0.38215 -0.00200
N 	N 	0.05757 0.36958 0.46231 -0.01100
N 	N 	0.04091 0.38720 0.54370 0.00300
C 	C 	0.00329 0.40979 0.52677 0.05800
C 	C 	0.97830 0.43047 0.60932 0.44300
F 	F 	1.00037 0.41708 0.69767 -0.37000
F 	F 	0.95134 0.37637 0.60520 -0.35700
C 	C 	0.95851 0.52286 0.60334 0.36800
F 	F 	0.93272 0.53335 0.52154 -0.36400
F 	F 	-0.01475 0.57619 0.59417 -0.36100
S 	S 	0.98680 0.40948 0.40543 0.19100
