data_crystal

_cell_length_a 14.72750
_cell_length_b 17.00870
_cell_length_c 13.79040
_cell_angle_alpha 92.34580
_cell_angle_beta  93.19200
_cell_angle_gamma 93.86020

_symmetry_space_group_name_	'P 1'
_symmetry_space_group_name_H-M	'P 1'

loop_
_symmetry_equiv_pos_as_xyz
  x,y,z

loop_
_atom_site_label
_atom_site_type_symbol
_atom_site_fract_x
_atom_site_fract_y
_atom_site_fract_z
_atom_site_charge
O 	O 	0.04125 0.06052 0.09450 -0.52800
O 	O 	0.00673 0.06230 0.24350 -0.45000
O 	O 	0.96538 0.07117 0.92655 -0.57300
O 	O 	0.97001 0.09747 0.77523 -0.43700
C 	C 	0.79039 0.85680 0.02667 0.36700
Dy	Dy	0.85473 0.98312 -0.06104 1.84800
Dy	Dy	0.15309 -0.01085 1.05205 1.87900
O 	O 	0.00531 0.03211 -0.00004 -0.28600
Dy	Dy	1.04698 0.00091 0.83377 1.95500
C 	C 	0.19762 0.89480 0.90023 0.41900
Dy	Dy	-0.05374 0.96646 0.14392 1.85100
C 	C 	0.94373 0.12098 0.85220 0.30200
C 	C 	0.91265 0.89271 0.76079 0.34500
O 	O 	0.88221 0.88301 0.03275 -0.64200
O 	O 	0.74751 0.89205 -0.03375 -0.44400
O 	O 	0.11198 0.91377 0.91792 -0.65800
O 	O 	0.24903 0.91661 0.96857 -0.44300
C 	C 	0.09466 0.88050 0.19631 0.43900
O 	O 	0.93586 0.90772 0.85648 -0.63500
O 	O 	0.96506 0.93007 0.71387 -0.40900
C 	C 	0.19054 0.10972 0.93590 0.30700
O 	O 	0.06714 0.89683 0.10672 -0.67200
O 	O 	0.03887 0.90188 0.24816 -0.46000
C 	C 	0.76921 0.07760 0.06476 0.51200
O 	O 	0.10680 0.07604 0.95053 -0.57200
O 	O 	0.24425 0.08394 0.99230 -0.39300
O 	O 	0.83817 0.03330 0.08919 -0.70400
O 	O 	0.75680 0.07330 -0.02137 -0.47100
C 	C 	0.05078 0.09819 0.18638 0.32100
O 	O 	0.57730 0.55148 0.64535 -0.64500
O 	O 	0.53450 0.53157 0.78293 -0.43500
O 	O 	0.44120 0.56710 0.40625 -0.60000
O 	O 	0.47512 0.60159 0.26955 -0.38600
C 	C 	0.34578 0.33357 0.54207 0.42900
Dy	Dy	0.35959 0.46778 0.44108 2.10600
Dy	Dy	0.66617 0.48833 0.55995 2.06900
O 	O 	0.50956 0.52379 0.51168 -0.43000
Dy	Dy	0.55658 0.51172 0.34508 2.07600
C 	C 	0.69979 0.39797 0.39914 0.35800
Dy	Dy	0.47007 0.45519 0.65704 2.01500
C 	C 	0.41422 0.60099 0.32388 0.32200
C 	C 	0.43519 0.41036 0.24117 0.36600
O 	O 	0.42303 0.37891 0.53311 -0.69400
O 	O 	0.28425 0.36016 0.49656 -0.50300
O 	O 	0.61701 0.41892 0.42344 -0.64100
O 	O 	0.75587 0.42330 0.46115 -0.37500
C 	C 	0.59971 0.35409 0.69637 0.36200
O 	O 	0.44792 0.41248 0.34052 -0.62900
O 	O 	0.49705 0.44881 0.20879 -0.38900
C 	C 	0.69115 0.62141 0.45837 0.32100
O 	O 	0.58524 0.38755 0.60894 -0.62400
O 	O 	0.53940 0.36922 0.74831 -0.41500
C 	C 	0.32999 0.56211 0.59920 0.30200
O 	O 	0.60962 0.58118 0.46997 -0.57900
O 	O 	0.74916 0.59208 0.50641 -0.38400
O 	O 	0.41359 0.54301 0.57059 -0.54000
O 	O 	0.27231 0.53137 0.54221 -0.38600
C 	C 	0.59441 0.56489 0.74203 0.43400
C 	C 	0.90999 0.19977 0.86621 -0.07800
C 	C 	0.94494 0.24777 0.94644 0.06300
C 	C 	0.92937 0.32832 0.95223 -0.07000
C 	C 	0.97513 0.38018 1.03204 0.28800
O 	O 	-0.00460 0.35259 1.10977 -0.15500
O 	O 	0.99808 0.46012 1.02002 -0.24500
C 	C 	0.87215 0.35902 0.88043 0.06100
C 	C 	0.83439 0.31112 0.80061 -0.02500
C 	C 	0.76986 0.34354 0.72461 0.45300
F 	F 	0.76456 0.42403 0.74239 -0.51500
F 	F 	0.80500 0.33340 0.63417 -0.39700
C 	C 	0.67335 0.30062 0.72352 0.31000
F 	F 	0.66715 0.23654 0.65768 -0.34400
F 	F 	0.65675 0.27278 0.81457 -0.37200
C 	C 	0.85601 0.23187 0.79284 0.06900
H 	H 	0.99004 0.22381 1.00076 0.06100
H 	H 	0.99026 0.47636 0.95041 0.18000
H 	H 	0.85596 0.42003 0.88767 0.07700
H 	H 	0.83037 0.19511 0.72995 0.10000
C 	C 	0.70903 0.11470 0.13060 -0.17400
C 	C 	0.61534 0.09655 0.11450 0.10100
C 	C 	0.55444 0.12399 0.17988 -0.06100
C 	C 	0.45650 0.10102 0.16419 0.31300
O 	O 	0.42382 0.08396 0.08222 -0.12700
O 	O 	0.40095 0.09920 0.24269 -0.22800
C 	C 	0.58773 0.17305 0.25985 0.08600
C 	C 	0.68173 0.19458 0.27486 -0.04600
C 	C 	0.71475 0.25493 0.35509 0.46900
F 	F 	0.65856 0.24678 0.43223 -0.38300
F 	F 	0.80183 0.24029 0.38973 -0.37700
C 	C 	0.71485 0.33999 0.31779 0.32600
F 	F 	0.79670 0.36039 0.27760 -0.36000
F 	F 	0.64543 0.34509 0.24672 -0.40600
C 	C 	0.74264 0.16345 0.21070 0.11100
H 	H 	0.59021 0.05782 0.05292 0.06800
H 	H 	0.33549 1.08060 0.22271 0.13000
H 	H 	0.54020 0.19635 0.30888 0.11900
H 	H 	0.81524 0.17858 0.22134 0.05700
C 	C 	0.74764 0.79022 0.07778 -0.13500
C 	C 	0.66597 0.75250 0.03641 0.07300
C 	C 	0.62247 0.68869 0.08051 -0.09800
C 	C 	0.53788 0.64818 0.03471 0.32000
O 	O 	0.49493 0.67903 0.97028 -0.16300
O 	O 	0.50692 0.57430 0.06498 -0.25800
C 	C 	0.66049 0.66356 0.16817 0.11500
C 	C 	0.73886 0.70317 0.21468 -0.07500
C 	C 	0.77327 0.67495 0.31275 0.45800
F 	F 	0.78383 0.59470 0.30098 -0.45100
F 	F 	0.85886 0.71099 0.33929 -0.37000
C 	C 	0.70723 0.69147 0.39581 0.32200
F 	F 	0.74420 0.75446 0.45530 -0.30800
F 	F 	0.62314 0.71188 0.35848 -0.40900
C 	C 	0.78387 0.76579 0.16748 0.09000
H 	H 	0.63746 0.77142 -0.03226 0.08000
H 	H 	0.44829 0.55286 1.02835 0.22600
H 	H 	0.62877 0.61314 0.20167 0.00500
H 	H 	0.84557 0.79613 0.20063 0.03200
C 	C 	0.18395 0.85214 0.22587 -0.19800
C 	C 	0.26339 0.88829 0.19050 0.13100
C 	C 	0.34907 0.85968 0.21167 -0.11100
C 	C 	0.43088 0.89040 0.16428 0.30600
O 	O 	0.42273 0.92412 0.08830 -0.20800
O 	O 	0.51769 0.87782 0.20400 -0.27300
C 	C 	0.35557 0.79761 0.27402 0.08500
C 	C 	0.27704 0.76044 0.30954 -0.07100
C 	C 	0.28707 0.68707 0.36518 0.45700
F 	F 	0.35088 0.70485 0.44176 -0.40400
F 	F 	0.20541 0.66341 0.40440 -0.38100
C 	C 	0.31789 0.61953 0.29831 0.32100
F 	F 	0.26303 0.55162 0.30990 -0.45500
F 	F 	0.30929 0.63620 0.20057 -0.37100
C 	C 	0.19092 0.78786 0.28516 0.12600
H 	H 	0.25918 0.93956 0.14765 -0.13400
H 	H 	0.56802 0.89995 0.16352 0.16700
H 	H 	0.42130 0.77468 0.29086 0.09300
H 	H 	0.12948 0.75879 0.31046 0.09600
C 	C 	0.09598 0.17644 0.21314 -0.11200
C 	C 	0.05224 0.22802 0.27420 0.08000
C 	C 	0.09657 0.29935 0.31233 -0.07800
C 	C 	0.04604 0.35306 0.37552 0.31400
O 	O 	0.96641 0.33523 0.38899 -0.12100
O 	O 	0.08458 0.42372 0.42031 -0.21200
C 	C 	0.18760 0.31660 0.28994 0.10600
C 	C 	0.23136 0.26720 0.22558 -0.06300
C 	C 	0.33181 0.28392 0.20859 0.46800
F 	F 	0.38043 0.26690 0.29312 -0.43900
F 	F 	0.35664 0.23279 0.13566 -0.36400
C 	C 	0.35780 0.36951 0.17812 0.31300
F 	F 	0.38429 0.36679 0.08309 -0.30000
F 	F 	0.28520 0.41705 0.17880 -0.38700
C 	C 	0.18420 0.19705 0.18724 0.09500
H 	H 	-0.01678 0.21160 0.29298 0.08500
H 	H 	0.15058 0.43761 0.40934 0.15300
H 	H 	0.22611 0.36811 0.32162 0.00500
H 	H 	0.21804 0.15540 0.14367 0.03900
C 	C 	0.67608 0.60706 0.79033 -0.14000
C 	C 	0.70673 0.58618 0.88332 0.07500
C 	C 	0.79113 0.61755 0.92549 -0.08600
C 	C 	0.82538 0.59224 1.02159 0.28500
O 	O 	0.78246 0.54101 1.06300 -0.19300
O 	O 	0.90712 0.62666 0.06514 -0.26900
C 	C 	0.84396 0.67161 0.87395 0.06000
C 	C 	0.81418 0.69288 0.78039 -0.04500
C 	C 	0.87363 0.74709 0.72157 0.46200
F 	F 	0.96359 0.74842 0.75808 -0.41100
F 	F 	0.87247 0.71500 0.62739 -0.34700
C 	C 	0.84022 0.83229 0.71936 0.32100
F 	F 	0.81762 0.85026 0.62434 -0.32200
F 	F 	0.76316 0.83926 0.77145 -0.42200
C 	C 	0.72949 0.66076 0.73969 0.08400
H 	H 	0.66613 0.54321 0.92139 0.06300
H 	H 	0.92311 0.60442 0.13056 0.22600
H 	H 	0.90897 0.69616 0.90612 0.08900
H 	H 	0.70599 0.67650 0.66769 0.09200
C 	C 	0.22227 0.85738 0.80828 -0.15700
C 	C 	0.18169 0.88374 0.72273 0.13300
C 	C 	0.19780 0.84941 0.63245 -0.09100
C 	C 	0.15567 0.88049 0.54334 0.29800
O 	O 	0.07782 -0.09938 0.54290 -0.13500
O 	O 	0.20421 0.89020 0.46035 -0.29300
C 	C 	0.25445 0.78664 0.62793 0.07700
C 	C 	0.29813 0.75968 0.71244 -0.02800
C 	C 	0.36179 0.69268 0.70346 0.46100
F 	F 	0.41629 0.70661 0.62640 -0.36800
F 	F 	0.42027 0.69486 0.78581 -0.38100
C 	C 	0.30972 0.60908 0.69059 0.34200
F 	F 	0.33305 0.56473 0.76904 -0.41300
F 	F 	0.21625 0.61562 0.68993 -0.36100
C 	C 	0.28192 0.79621 0.80346 0.10900
H 	H 	0.13932 0.93316 0.72611 -0.08700
H 	H 	0.26983 -0.12364 0.46911 0.19600
H 	H 	0.26349 0.75820 0.55857 0.12100
H 	H 	0.31323 0.77607 0.87005 0.09100
C 	C 	0.34134 0.25821 0.58952 -0.14800
C 	C 	0.35336 0.18865 0.53499 0.09200
C 	C 	0.35640 0.11640 0.58033 -0.07900
C 	C 	0.36924 0.04287 0.52325 0.30700
O 	O 	0.38864 -0.01651 0.56444 -0.19400
O 	O 	0.35879 0.04096 0.42211 -0.26900
C 	C 	0.34667 0.11478 0.68078 0.08100
C 	C 	0.33495 0.18425 0.73631 -0.04200
C 	C 	0.31708 0.17899 0.84294 0.46000
F 	F 	0.36653 0.11911 0.87978 -0.40100
F 	F 	0.34962 0.24818 0.89360 -0.34900
C 	C 	0.21270 0.16405 0.85604 0.33200
F 	F 	0.17503 0.23506 0.87509 -0.36400
F 	F 	0.16897 0.12985 0.77146 -0.48300
C 	C 	0.33249 0.25610 0.68995 0.09900
H 	H 	0.36193 0.19122 0.45763 0.07900
H 	H 	0.36875 0.98730 0.39132 0.16600
H 	H 	0.34607 0.05883 0.71570 0.07500
H 	H 	0.32333 0.31010 0.73165 0.03800
