data_crystal

_cell_length_a 31.01520
_cell_length_b 15.21170
_cell_length_c 16.06300
_cell_angle_alpha 108.73780
_cell_angle_beta  91.36350
_cell_angle_gamma 91.81160

_symmetry_space_group_name_	'P 1'
_symmetry_space_group_name_H-M	'P 1'

loop_
_symmetry_equiv_pos_as_xyz
  x,y,z

loop_
_atom_site_label
_atom_site_type_symbol
_atom_site_fract_x
_atom_site_fract_y
_atom_site_fract_z
_atom_site_charge
Eu	Eu	0.43163 0.75230 0.28140 1.94200
O 	O 	0.38154 0.89698 0.23259 -0.17600
C 	C 	0.33835 0.69366 0.29470 0.30800
O 	O 	0.46621 0.72503 0.10013 -0.20200
O 	O 	0.48448 0.82996 0.23318 -0.32500
O 	O 	0.46039 0.59665 0.34389 -0.25300
O 	O 	0.33662 0.70630 0.22345 -0.25900
O 	O 	0.37768 0.67813 0.32964 -0.39300
O 	O 	0.40699 0.89225 0.36362 -0.32200
C 	C 	0.39032 0.93950 0.30947 0.24000
O 	O 	0.47520 0.75102 0.39767 -0.37500
C 	C 	0.47770 0.66164 0.40214 0.32200
C 	C 	0.48607 0.79717 0.14168 0.26700
Eu	Eu	0.87340 0.72534 0.71978 1.89300
O 	O 	0.83165 0.91258 0.81980 -0.18900
C 	C 	0.77814 0.72081 0.76565 0.32100
O 	O 	0.99070 0.75657 0.86485 -0.12900
O 	O 	0.94597 0.71860 0.74501 -0.36100
O 	O 	0.94352 0.74127 0.58541 -0.15600
O 	O 	0.79727 0.73076 0.83558 -0.24900
O 	O 	0.80082 0.72279 0.69290 -0.39900
O 	O 	0.87736 0.87124 0.70876 -0.38300
C 	C 	0.84147 0.91726 0.74840 0.29500
O 	O 	0.87909 0.66202 0.57135 -0.31700
C 	C 	0.91777 0.68348 0.53799 0.25800
C 	C 	0.96266 0.78134 0.82365 0.27400
Eu	Eu	0.15911 0.26881 0.24467 1.88100
O 	O 	0.18511 0.05616 0.16056 -0.19700
C 	C 	0.23674 0.36274 0.36777 0.22000
O 	O 	0.09838 0.24018 0.07344 -0.17700
O 	O 	0.11663 0.14881 0.15467 -0.34000
O 	O 	0.08736 0.39867 0.32375 -0.25200
O 	O 	0.25894 0.30683 0.31611 -0.18000
O 	O 	0.19928 0.39205 0.33741 -0.36300
O 	O 	0.19778 0.16753 0.29336 -0.36100
C 	C 	0.19661 0.07544 0.23723 0.30900
O 	O 	0.11406 0.27663 0.35596 -0.38200
C 	C 	0.08765 0.35190 0.37272 0.32800
C 	C 	0.10603 0.16214 0.07477 0.23300
Eu	Eu	0.54373 0.21558 0.73185 1.96400
O 	O 	0.61473 0.07099 0.72080 -0.18700
C 	C 	0.61761 0.34831 0.81873 0.23400
O 	O 	0.51719 0.11664 0.85291 -0.27600
O 	O 	0.50354 0.08081 0.70768 -0.39200
O 	O 	0.47248 0.35243 0.71775 -0.18200
O 	O 	0.60836 0.32993 0.88513 -0.16400
O 	O 	0.58525 0.34726 0.75671 -0.31000
O 	O 	0.59047 0.14341 0.62677 -0.30400
C 	C 	0.61547 0.07853 0.64743 0.25900
O 	O 	0.50793 0.24161 0.61730 -0.30500
C 	C 	0.47622 0.30730 0.64100 0.26700
C 	C 	0.50025 0.06224 0.78637 0.32300
C 	C 	0.29996 0.70611 0.34755 -0.05300
C 	C 	0.29004 0.65652 0.40027 -0.02200
C 	C 	0.30589 0.56693 0.40058 0.23800
O 	O 	0.33248 0.51294 0.33663 -0.24700
C 	C 	0.28647 0.54326 0.46464 -0.17500
C 	C 	0.29012 0.45554 0.48878 0.51800
F 	F 	0.29792 0.48057 0.57894 -0.30300
F 	F 	0.32427 0.40407 0.44908 -0.37700
C 	C 	0.24783 0.39524 0.46507 0.35700
F 	F 	0.25175 0.31771 0.49181 -0.31000
F 	F 	0.21407 0.44605 0.50919 -0.33000
C 	C 	0.25818 0.61893 0.50925 0.33100
F 	F 	0.23646 0.62650 0.58338 -0.29900
C 	C 	0.25904 0.68249 0.46947 0.22600
F 	F 	0.23865 0.76374 0.49683 -0.29700
H 	H 	0.28035 0.76433 0.34888 0.14800
H 	H 	0.32769 0.44346 0.32371 0.21400
C 	C 	0.81395 0.96242 0.69938 -0.03700
C 	C 	0.77116 0.97481 0.71002 -0.03700
C 	C 	0.74062 0.98368 0.64204 0.22800
O 	O 	0.75105 0.99380 0.56145 -0.16900
C 	C 	0.70045 0.96362 0.66113 -0.10400
C 	C 	0.66241 -0.06433 0.59625 0.47400
F 	F 	0.63087 0.88829 0.62702 -0.33300
F 	F 	0.67644 0.87422 0.51887 -0.32100
C 	C 	0.64237 0.01831 0.57580 0.36900
F 	F 	0.61563 -0.01732 0.50125 -0.31100
F 	F 	0.67421 0.07402 0.55665 -0.33100
C 	C 	0.70260 -0.05151 0.74634 0.26800
F 	F 	0.66826 -0.06769 0.79110 -0.32100
C 	C 	0.74320 0.95598 0.77576 0.24800
F 	F 	0.75501 0.94955 0.85508 -0.33600
H 	H 	0.82809 0.97174 0.64218 0.10200
H 	H 	0.78229 1.01290 0.55836 0.19300
C 	C 	0.20558 0.00112 0.27419 -0.04000
C 	C 	0.24077 0.00305 0.32409 -0.04400
C 	C 	0.28060 0.06093 0.33544 0.25100
O 	O 	0.28716 0.12958 0.29613 -0.24200
C 	C 	0.30862 1.03594 0.38754 -0.15600
C 	C 	0.35382 1.07573 0.41698 0.51700
F 	F 	0.36732 1.04969 0.48822 -0.32500
F 	F 	0.35285 0.17192 0.44557 -0.31200
C 	C 	0.38700 1.04368 0.34400 0.36700
F 	F 	0.42734 1.08187 0.37818 -0.27200
F 	F 	0.37698 1.07627 0.27526 -0.33300
C 	C 	0.28730 0.96164 0.41352 0.30500
F 	F 	0.30465 0.91860 0.46779 -0.33600
C 	C 	0.24834 0.94144 0.37529 0.23300
F 	F 	0.21932 0.87859 0.38756 -0.33400
H 	H 	0.18095 -0.05313 0.26574 0.12700
H 	H 	0.31537 0.16686 0.31309 0.26400
C 	C 	0.73096 0.71298 0.75928 -0.03800
C 	C 	0.70772 0.65351 0.78795 -0.02200
C 	C 	0.72270 0.57804 0.81842 0.26200
O 	O 	0.76628 0.55447 0.81817 -0.26300
C 	C 	0.68792 0.53407 0.83821 -0.15100
C 	C 	0.68553 0.45183 0.87187 0.52000
F 	F 	0.66181 0.47705 0.94726 -0.35500
F 	F 	0.72556 0.43087 0.89740 -0.36400
C 	C 	0.66436 0.36408 0.80085 0.36200
F 	F 	0.68622 0.28463 0.79821 -0.33600
F 	F 	0.66670 0.37290 0.71745 -0.34600
C 	C 	0.64926 0.57938 0.81912 0.33100
F 	F 	0.60783 0.55578 0.83031 -0.32700
C 	C 	0.66085 0.64787 0.78924 0.24600
F 	F 	0.63342 0.70264 0.76385 -0.29600
H 	H 	0.71430 0.75805 0.73043 0.14800
H 	H 	0.77253 0.49658 0.83250 0.24800
C 	C 	0.50442 0.64647 0.47281 -0.05000
C 	C 	0.50245 0.57037 0.49799 -0.02400
C 	C 	0.47062 0.49176 0.47469 0.26600
O 	O 	0.43044 0.49187 0.43364 -0.23700
C 	C 	0.48442 0.42715 0.50859 -0.16800
C 	C 	0.46608 0.32868 0.49059 0.52300
F 	F 	0.49931 0.26826 0.46344 -0.33400
F 	F 	0.43602 0.30529 0.42138 -0.33100
C 	C 	0.44437 0.31453 0.57146 0.35500
F 	F 	0.42060 0.23041 0.54352 -0.27200
F 	F 	0.41598 0.38455 0.60669 -0.32200
C 	C 	0.52503 0.46370 0.55815 0.32400
F 	F 	0.54989 0.41823 0.60000 -0.34700
C 	C 	0.53477 0.54769 0.55401 0.23200
F 	F 	0.57078 0.60001 0.59054 -0.30900
H 	H 	0.52977 0.69870 0.50227 0.15200
H 	H 	0.40777 0.44775 0.44432 0.26700
C 	C 	0.94719 0.87628 0.85699 -0.06900
C 	C 	0.97385 0.95196 0.88229 -0.01600
C 	C 	0.02112 0.95866 0.87882 0.27000
O 	O 	0.04727 0.88250 0.84596 -0.22300
C 	C 	0.03421 0.04862 0.90740 -0.17200
C 	C 	0.08008 0.08797 0.91087 0.51600
F 	F 	0.07918 0.17922 0.91148 -0.34800
F 	F 	0.09957 0.03982 0.83385 -0.35300
C 	C 	0.10710 0.07980 -0.00876 0.34500
F 	F 	0.15002 0.06771 -0.03185 -0.34100
F 	F 	0.09297 0.00156 0.01197 -0.37400
C 	C 	0.99559 0.10374 0.93005 0.32500
F 	F 	0.99513 0.19782 0.96073 -0.32700
C 	C 	0.96075 0.04768 0.91528 0.20600
F 	F 	0.91966 0.07592 0.92748 -0.33800
H 	H 	0.91279 0.88482 0.85861 0.05900
H 	H 	0.07937 0.89801 0.85545 0.26400
C 	C 	0.47368 -0.01900 0.78832 -0.05800
C 	C 	0.47035 -0.05175 0.85639 -0.00700
C 	C 	0.49402 -0.02510 -0.05781 0.23300
O 	O 	0.53239 0.02922 -0.03716 -0.22400
C 	C 	0.47572 0.92849 -0.00851 -0.13300
C 	C 	0.48620 0.93616 0.08639 0.50900
F 	F 	0.44741 0.94312 0.12835 -0.36700
F 	F 	0.50966 1.01820 0.12909 -0.34000
C 	C 	0.51126 0.85167 0.09432 0.36000
F 	F 	0.54989 0.88274 0.14102 -0.30500
F 	F 	0.52124 0.79237 0.01202 -0.34000
C 	C 	0.44072 0.86766 0.93841 0.34700
F 	F 	0.41508 0.80860 0.96504 -0.33800
C 	C 	0.43809 -0.12222 0.85978 0.20500
F 	F 	0.40869 -0.16751 0.79510 -0.32900
H 	H 	0.45323 -0.05205 0.73023 0.14000
H 	H 	0.55030 0.02245 0.01360 0.24800
C 	C 	0.06263 0.37646 0.45314 -0.05200
C 	C 	0.02628 0.42402 0.46716 -0.02200
C 	C 	0.99971 0.45920 0.40856 0.25600
O 	O 	1.00823 0.44767 0.32070 -0.23100
C 	C 	0.96472 0.49747 0.45162 -0.17300
C 	C 	0.92539 0.53130 0.41495 0.51400
F 	F 	0.88858 0.49933 0.44537 -0.35800
F 	F 	0.92258 0.49424 0.32405 -0.35000
C 	C 	0.92629 0.63836 0.44177 0.35700
F 	F 	0.89461 0.66411 0.39318 -0.31300
F 	F 	0.96598 0.67039 0.42229 -0.35200
C 	C 	0.96817 0.49102 0.54087 0.31800
F 	F 	0.93944 0.52217 0.60512 -0.39500
C 	C 	0.00361 0.44846 0.54961 0.22100
F 	F 	0.01684 0.43222 0.62432 -0.33200
H 	H 	0.07509 0.35259 0.50564 0.14600
H 	H 	0.99524 0.49600 0.29796 0.24800
