data_crystal

_cell_length_a 27.95590
_cell_length_b 16.29030
_cell_length_c 10.11830
_cell_angle_alpha 84.36740
_cell_angle_beta  94.71950
_cell_angle_gamma 90.48290

_symmetry_space_group_name_	'P 1'
_symmetry_space_group_name_H-M	'P 1'

loop_
_symmetry_equiv_pos_as_xyz
  x,y,z

loop_
_atom_site_label
_atom_site_type_symbol
_atom_site_fract_x
_atom_site_fract_y
_atom_site_fract_z
_atom_site_charge
Eu	Eu	0.36376 0.69318 0.31008 1.78800
O 	O 	0.31607 0.86063 0.33256 -0.22900
C 	C 	0.34935 0.58329 0.07913 0.28700
O 	O 	0.38766 0.79270 0.04062 -0.17600
O 	O 	0.41018 0.80637 0.25754 -0.32500
O 	O 	0.42389 0.51979 0.36864 -0.28000
O 	O 	0.35746 0.52964 0.00822 -0.20200
O 	O 	0.38733 0.62711 0.13654 -0.39200
O 	O 	0.33900 0.75503 0.48607 -0.35300
C 	C 	0.32469 0.83644 0.44991 0.24100
O 	O 	0.42984 0.64570 0.44222 -0.39200
C 	C 	0.44984 0.57722 0.39611 0.30000
C 	C 	0.40828 0.83372 0.12232 0.25700
Eu	Eu	0.87547 0.79135 0.67672 1.80000
O 	O 	0.77521 0.95704 0.50377 -0.23100
C 	C 	0.80790 0.63577 0.71235 0.31100
O 	O 	0.96779 0.88918 0.79723 -0.29000
O 	O 	0.89899 0.92513 0.67329 -0.44400
O 	O 	0.98163 0.70023 0.60916 -0.19900
O 	O 	0.77364 0.67801 0.66592 -0.26600
O 	O 	0.85392 0.65733 0.68151 -0.39000
O 	O 	0.81088 0.83278 0.53518 -0.40500
C 	C 	0.78404 0.89505 0.57923 0.28900
O 	O 	0.91658 0.76454 0.50045 -0.36400
C 	C 	0.94529 0.69460 0.53494 0.22000
C 	C 	0.93297 0.93456 0.77886 0.27300
Eu	Eu	0.14011 0.29423 0.27479 2.04200
O 	O 	0.21572 0.15408 0.31430 -0.27400
C 	C 	0.22518 0.39919 0.39875 0.22900
O 	O 	0.12649 0.19501 0.04217 -0.23300
O 	O 	0.07347 0.26670 0.14142 -0.36500
O 	O 	0.06044 0.41632 0.28653 -0.22700
O 	O 	0.26717 0.41203 0.43433 -0.17600
O 	O 	0.20838 0.31776 0.40752 -0.37300
O 	O 	0.13789 0.15873 0.35687 -0.41700
C 	C 	0.18118 0.11748 0.35662 0.31100
O 	O 	0.09144 0.31547 0.43754 -0.38900
C 	C 	0.05570 0.37159 0.38840 0.32400
C 	C 	0.08460 0.20479 0.06350 0.28200
Eu	Eu	0.61216 0.25116 0.74265 2.12900
O 	O 	0.66281 0.08075 0.79902 -0.24100
C 	C 	0.72028 0.29520 0.73611 0.19500
O 	O 	0.56433 0.12022 0.92727 -0.22400
O 	O 	0.54032 0.24657 0.83558 -0.42600
O 	O 	0.63998 0.37867 0.49738 -0.19300
O 	O 	0.75831 0.31546 0.69124 -0.17100
O 	O 	0.68514 0.25785 0.65538 -0.36500
O 	O 	0.59765 0.12574 0.66439 -0.35400
C 	C 	0.62685 0.06316 0.73048 0.25300
O 	O 	0.57248 0.30880 0.54982 -0.38400
C 	C 	0.60181 0.34875 0.45880 0.22400
C 	C 	0.53366 0.17370 0.91572 0.28900
C 	C 	0.29956 0.60278 0.10095 -0.15300
C 	C 	0.26731 0.54015 0.13771 0.06100
C 	C 	0.21951 0.55906 0.15483 -0.04600
C 	C 	0.18533 0.49150 0.20236 0.43300
F 	F 	0.19242 0.42177 0.13792 -0.53100
F 	F 	0.13839 0.51683 0.16672 -0.41600
C 	C 	0.19199 0.47119 0.35611 0.31400
F 	F 	0.14824 0.45254 0.40523 -0.43000
F 	F 	0.20943 0.53961 0.41644 -0.41100
C 	C 	0.20429 0.64184 0.13276 0.03300
C 	C 	0.23587 0.70584 0.09220 -0.05700
C 	C 	0.21707 0.79506 0.06105 0.16100
C 	C 	0.25579 0.85753 0.01550 -0.26800
C 	C 	0.19755 0.82449 0.18635 -0.23900
C 	C 	0.17671 0.79719 -0.05267 -0.21300
C 	C 	0.28384 0.68458 0.07870 -0.02400
H 	H 	0.27959 0.47687 0.15489 0.04400
H 	H 	0.16750 0.65645 0.14675 0.07300
H 	H 	0.27168 0.83907 -0.07361 0.18600
H 	H 	0.24017 0.92003 -0.01103 0.14900
H 	H 	0.28497 0.86256 0.09492 0.13000
H 	H 	0.18495 0.88945 0.16780 0.10200
H 	H 	0.22580 0.82035 0.27041 0.09000
H 	H 	0.16699 0.78608 0.21732 0.08900
H 	H 	0.16253 0.86071 -0.07876 0.10300
H 	H 	0.14610 0.75713 -0.02541 0.09900
H 	H 	0.19069 0.77567 0.85710 0.09600
H 	H 	0.30927 0.73063 0.04728 0.02600
C 	C 	0.76142 0.88328 0.70753 -0.14200
C 	C 	0.71529 0.91524 0.71415 0.05300
C 	C 	0.68903 0.89316 0.82491 -0.06700
C 	C 	0.63589 0.91196 0.82986 0.44600
F 	F 	0.62923 -0.06099 0.95277 -0.40700
F 	F 	0.61161 0.83782 0.82325 -0.38700
C 	C 	0.61141 -0.02515 0.72084 0.36900
F 	F 	0.56257 -0.02851 0.73557 -0.33200
F 	F 	0.61759 0.95321 0.59482 -0.40800
C 	C 	0.71104 0.84230 0.93244 0.06100
C 	C 	0.75848 0.81375 0.93365 -0.12700
C 	C 	0.77922 0.75380 0.05235 0.19400
C 	C 	0.83308 0.73522 0.04570 -0.19200
C 	C 	0.75105 0.67205 1.05148 -0.29300
C 	C 	0.77430 0.78880 0.18752 -0.24600
C 	C 	0.78323 0.83502 0.81852 0.09700
H 	H 	0.69956 -0.04658 0.62900 0.07900
H 	H 	0.68988 0.82250 1.01439 0.04800
H 	H 	0.85437 0.79322 0.04113 0.05800
H 	H 	0.84733 0.69506 0.13516 0.09600
H 	H 	0.83906 0.70264 0.95762 0.01900
H 	H 	0.76780 0.62406 1.12635 0.09800
H 	H 	0.74987 0.64925 0.95173 0.11200
H 	H 	0.71346 0.68063 0.07504 0.13100
H 	H 	0.78406 0.74102 0.27135 0.10900
H 	H 	0.73729 0.80886 0.19937 0.09800
H 	H 	0.79881 0.84159 0.20029 0.09800
H 	H 	0.81906 0.81333 0.81294 -0.15900
C 	C 	0.18500 0.03019 0.41200 -0.05500
C 	C 	0.22859 0.99944 0.47458 0.03500
C 	C 	0.23192 0.91893 0.53862 -0.05000
C 	C 	0.27733 0.89240 0.62626 0.44000
F 	F 	0.27223 0.81295 0.68674 -0.43200
F 	F 	0.28281 0.94513 0.72592 -0.39000
C 	C 	0.32429 0.89574 0.55479 0.36800
F 	F 	0.36200 0.87498 0.64965 -0.32100
F 	F 	0.33314 0.97479 0.49850 -0.36300
C 	C 	0.19011 0.86936 0.53902 0.01200
C 	C 	0.14525 0.89944 0.47871 -0.04800
C 	C 	0.09897 0.84774 0.49666 0.15100
C 	C 	0.05327 0.89096 0.42599 -0.23400
C 	C 	0.09133 0.83299 0.64654 -0.23200
C 	C 	0.10299 0.76351 0.44031 -0.23900
C 	C 	0.14396 0.98019 0.41293 0.00100
H 	H 	0.25895 1.04089 0.48108 0.10600
H 	H 	0.19179 0.80857 0.59294 0.06300
H 	H 	0.05678 0.90376 0.31714 0.10600
H 	H 	0.02109 0.85119 0.43850 0.10100
H 	H 	0.04650 0.94976 0.46887 0.10000
H 	H 	0.05663 0.80119 0.66225 0.10200
H 	H 	0.09089 0.89258 0.69150 0.09700
H 	H 	0.12007 0.79345 0.70075 0.08900
H 	H 	0.07191 0.72353 0.46566 0.12200
H 	H 	0.13627 0.73000 0.48106 0.11000
H 	H 	0.10235 0.77202 0.33007 0.09900
H 	H 	0.11092 0.00634 0.36402 0.07000
C 	C 	0.80207 0.56088 0.80334 -0.07300
C 	C 	0.75937 0.51547 0.80000 0.04800
C 	C 	0.75330 0.44888 0.89645 -0.06200
C 	C 	0.70646 0.40087 0.89883 0.42200
F 	F 	0.67223 0.43563 -0.19702 -0.43300
F 	F 	0.68910 0.40574 1.02208 -0.35800
C 	C 	0.71247 0.30881 0.87816 0.36200
F 	F 	0.67212 0.26661 0.91647 -0.56200
F 	F 	0.75071 0.27512 0.95925 -0.44100
C 	C 	0.79016 0.43068 -0.00151 0.05800
C 	C 	0.83403 0.47393 0.00162 -0.03600
C 	C 	0.87228 0.45444 0.11929 0.15800
C 	C 	0.91828 0.50738 0.10850 -0.24300
C 	C 	0.88754 0.36324 0.12771 -0.20900
C 	C 	0.85043 0.47089 0.24921 -0.24400
C 	C 	0.83975 0.53771 0.89991 0.00900
H 	H 	0.73094 0.53292 0.72334 0.07800
H 	H 	0.78399 0.38373 0.07845 0.08500
H 	H 	0.91002 0.57393 0.10845 0.11700
H 	H 	0.94479 0.49062 0.19478 0.13400
H 	H 	0.93578 0.49731 0.01669 0.13700
H 	H 	0.91709 0.34916 0.20696 0.10300
H 	H 	0.89990 0.34791 1.03148 0.10100
H 	H 	0.85732 0.32238 0.15327 0.08800
H 	H 	0.87787 0.46341 0.33456 0.12400
H 	H 	0.82072 0.42748 0.27198 0.10700
H 	H 	0.83620 0.53477 0.24112 0.12600
H 	H 	0.87257 0.57312 0.89844 0.04000
C 	C 	0.50180 0.57584 0.37635 -0.07300
C 	C 	0.52235 0.50758 0.32805 0.04800
C 	C 	0.57077 0.50804 0.30060 -0.05300
C 	C 	0.59167 0.43725 0.23575 0.44800
F 	F 	0.64001 0.45068 0.22063 -0.36500
F 	F 	0.56864 0.43580 0.10949 -0.37600
C 	C 	0.58668 0.35122 0.31236 0.36800
F 	F 	0.61514 0.29615 0.25819 -0.33800
F 	F 	0.53978 0.32397 0.29598 -0.40900
C 	C 	0.59853 0.57870 0.32162 0.04000
C 	C 	0.57869 0.64933 0.36613 -0.05400
C 	C 	0.60966 0.72790 0.37394 0.17900
C 	C 	0.58238 0.80102 0.41912 -0.27100
C 	C 	0.62622 0.75589 0.23460 -0.25400
C 	C 	0.65407 0.70962 0.47358 -0.24800
C 	C 	0.53017 0.64592 0.39599 0.03000
H 	H 	0.50025 0.45470 0.30959 0.07200
H 	H 	0.63554 0.58025 0.29784 0.07400
H 	H 	0.57122 0.78638 0.52174 0.15500
H 	H 	0.60569 0.85650 0.41905 0.16300
H 	H 	0.55025 0.81748 0.34962 0.15400
H 	H 	0.64771 0.81350 0.23658 0.12000
H 	H 	0.59469 0.76768 0.16100 0.15400
H 	H 	0.64894 0.70869 0.19881 0.10500
H 	H 	0.67591 0.76628 0.48439 0.11100
H 	H 	0.67776 0.66271 0.44026 0.10500
H 	H 	0.64281 0.68643 0.57329 0.12200
H 	H 	0.51348 0.69821 0.43136 0.06100
C 	C 	0.92568 0.99727 0.87044 -0.10300
C 	C 	0.96432 0.04265 0.92196 0.05200
C 	C 	0.95699 0.10397 1.00736 -0.04500
C 	C 	0.99695 0.15943 1.06059 0.44600
F 	F 	1.00114 0.14541 0.19835 -0.42000
F 	F 	0.98287 0.24055 1.02625 -0.43300
C 	C 	0.04687 0.14756 1.00907 0.32200
F 	F 	0.06242 0.06762 0.04802 -0.39600
F 	F 	0.04370 0.16124 0.87129 -0.40800
C 	C 	0.91021 0.11605 1.04422 0.02300
C 	C 	0.87065 0.07018 0.99431 -0.06200
C 	C 	0.81881 0.08285 1.03037 0.13300
C 	C 	0.80008 1.00226 1.10000 -0.25700
C 	C 	0.78608 0.10744 0.90227 -0.22200
C 	C 	0.81478 0.15043 0.12537 -0.14700
C 	C 	0.87942 1.01129 0.90620 0.01000
H 	H 	-0.00052 0.03050 0.89155 0.08500
H 	H 	0.90538 0.16265 1.11103 0.04900
H 	H 	0.82376 0.98244 0.19089 0.10600
H 	H 	0.76306 1.00993 1.12940 0.10300
H 	H 	0.79891 0.95259 1.03283 0.07900
H 	H 	0.74910 1.12087 0.92672 0.13100
H 	H 	0.78317 0.05736 0.83526 0.09100
H 	H 	0.80037 0.16326 0.84668 0.11000
H 	H 	0.77713 0.15789 1.14967 0.10000
H 	H 	0.82654 0.21011 1.07714 0.07800
H 	H 	0.83677 0.13511 0.22083 0.07400
H 	H 	0.85017 0.97498 0.86583 0.00600
C 	C 	0.49010 0.16209 -0.01153 -0.01000
C 	C 	0.47132 0.08316 0.01800 0.03800
C 	C 	0.43115 0.07145 0.09312 0.01700
C 	C 	0.40961 0.98715 0.13232 0.43600
F 	F 	0.36135 0.98927 0.08764 -0.39600
F 	F 	0.41301 0.97477 0.27034 -0.37300
C 	C 	0.43291 0.91300 0.07761 0.37000
F 	F 	0.42932 0.92382 -0.06058 -0.33700
F 	F 	0.48090 0.90636 0.12424 -0.37800
C 	C 	0.41016 0.14081 0.13749 0.02700
C 	C 	0.42791 0.22123 0.10789 -0.02700
C 	C 	0.40464 0.29472 0.16396 0.16600
C 	C 	0.42754 0.37830 0.11868 -0.22600
C 	C 	0.41069 0.28308 0.31765 -0.25100
C 	C 	0.35061 0.30012 0.11745 -0.24000
C 	C 	0.46802 0.23042 0.03131 0.02000
H 	H 	0.48849 1.03192 -0.01882 0.14500
H 	H 	0.37982 0.13135 0.19713 0.09300
H 	H 	0.42188 0.39229 1.00882 0.09400
H 	H 	0.41165 0.42897 0.16611 0.11400
H 	H 	0.46649 0.37819 0.14866 0.14100
H 	H 	0.39501 0.33609 0.36046 0.11000
H 	H 	0.44935 0.27867 0.35296 0.14200
H 	H 	0.39245 0.22628 0.35762 0.12400
H 	H 	0.33413 0.35480 0.15337 0.10300
H 	H 	0.33064 0.24513 0.15675 0.11100
H 	H 	0.34521 0.30591 0.00692 0.11800
H 	H 	0.48388 0.28998 0.00761 0.08300
C 	C 	0.01150 0.37479 0.45542 -0.09100
C 	C 	0.99517 0.44988 0.48958 0.06900
C 	C 	0.94976 0.45607 0.53682 -0.04000
C 	C 	0.93370 0.53710 0.58279 0.44300
F 	F 	0.96343 0.55073 0.69484 -0.43100
F 	F 	0.88793 0.52639 0.62345 -0.42200
C 	C 	0.93322 0.61411 0.47530 0.36700
F 	F 	0.88796 0.62167 0.40849 -0.41900
F 	F 	0.96530 0.60546 0.38085 -0.42800
C 	C 	0.92223 0.38331 0.55713 0.02700
C 	C 	0.93959 0.30548 0.53225 -0.05800
C 	C 	0.90927 0.22716 0.56253 0.16200
C 	C 	0.93485 0.14682 0.53718 -0.23600
C 	C 	0.86157 0.23334 0.47416 -0.23800
C 	C 	0.89829 0.21895 0.71020 -0.24400
C 	C 	0.98467 0.30292 0.47956 0.05500
H 	H 	1.01844 0.50318 0.48059 0.09900
H 	H 	0.88739 0.38663 0.59531 0.07100
H 	H 	-0.03070 0.13880 0.60022 0.10800
H 	H 	0.91230 0.09190 0.56221 0.10000
H 	H 	0.94192 0.14694 0.43068 0.11400
H 	H 	0.83940 0.17711 0.49351 0.09700
H 	H 	0.86857 0.23995 0.36735 0.08600
H 	H 	0.84002 0.28707 0.49383 0.10200
H 	H 	0.87817 0.16111 0.73424 0.09200
H 	H 	0.87580 0.27052 0.73380 0.10400
H 	H 	0.93217 0.21764 0.77579 0.13100
H 	H 	-0.00065 0.24593 0.45422 0.04800
