data_crystal

_cell_length_a 39.50850
_cell_length_b 20.22690
_cell_length_c 9.24370
_cell_angle_alpha 93.13870
_cell_angle_beta  85.98920
_cell_angle_gamma 86.34880

_symmetry_space_group_name_	'P 1'
_symmetry_space_group_name_H-M	'P 1'

loop_
_symmetry_equiv_pos_as_xyz
  x,y,z

loop_
_atom_site_label
_atom_site_type_symbol
_atom_site_fract_x
_atom_site_fract_y
_atom_site_fract_z
_atom_site_charge
Eu	Eu	0.39416 0.72056 0.23182 1.86900
O 	O 	0.33664 0.77989 0.06889 -0.27400
C 	C 	0.33066 0.64004 0.18412 0.28800
O 	O 	0.42432 0.78375 -0.03491 -0.26600
O 	O 	0.44494 0.76510 0.18080 -0.41300
O 	O 	0.43474 0.70691 0.64945 -0.17800
O 	O 	0.35078 0.61133 0.09237 -0.26500
O 	O 	0.34209 0.68229 0.29090 -0.40400
O 	O 	0.36736 0.82411 0.24049 -0.38500
C 	C 	0.33792 0.82204 0.16717 0.32800
O 	O 	0.40140 0.73519 0.47357 -0.37400
C 	C 	0.42544 0.69206 0.52986 0.27500
C 	C 	0.44291 0.80113 0.05770 0.32600
Eu	Eu	0.86982 0.75869 0.86147 1.84300
O 	O 	0.80180 0.82290 0.85673 -0.29700
C 	C 	0.84264 0.61724 0.88818 0.28600
O 	O 	0.92001 0.86169 0.92282 -0.28900
O 	O 	0.86760 0.87070 0.84131 -0.42100
O 	O 	0.93944 0.69756 0.86705 -0.28600
O 	O 	0.81634 0.65115 0.87894 -0.26700
O 	O 	0.87357 0.64631 0.88013 -0.41700
O 	O 	0.83112 0.75215 0.69053 -0.39900
C 	C 	0.80326 0.79567 0.73537 0.28700
O 	O 	0.91326 0.74418 0.68582 -0.40100
C 	C 	0.93919 0.70428 0.73697 0.33800
C 	C 	0.89732 0.89779 0.88086 0.28200
Eu	Eu	0.11217 0.24925 0.22382 1.83500
O 	O 	0.18136 0.16904 0.23279 -0.25700
C 	C 	0.17636 0.32206 0.14130 0.33400
O 	O 	0.05759 0.25118 0.01323 -0.30000
O 	O 	0.06905 0.18194 0.18884 -0.41400
O 	O 	0.02645 0.32260 0.36041 -0.18600
O 	O 	0.17578 0.28212 0.03817 -0.28000
O 	O 	0.15485 0.31654 0.26487 -0.41200
O 	O 	0.13278 0.17478 0.37736 -0.39400
C 	C 	0.16307 0.14181 0.31919 0.27100
O 	O 	0.08097 0.30497 0.41388 -0.38200
C 	C 	0.05422 0.34494 0.36919 0.24500
C 	C 	0.05004 0.20236 0.07665 0.33600
Eu	Eu	0.61791 0.26360 0.82348 1.89900
O 	O 	0.65664 0.14325 0.88991 -0.28700
C 	C 	0.68412 0.31657 0.91543 0.33500
O 	O 	0.58248 0.14435 0.95440 -0.26400
O 	O 	0.56268 0.23780 0.85770 -0.42600
O 	O 	0.59703 0.40439 0.80848 -0.28600
O 	O 	0.66762 0.30806 1.02839 -0.29400
O 	O 	0.67206 0.29501 0.78451 -0.40200
O 	O 	0.63224 0.16769 0.68487 -0.39800
C 	C 	0.65165 0.12551 0.76550 0.33900
O 	O 	0.60126 0.32172 0.63405 -0.40100
C 	C 	0.58759 0.38305 0.69338 0.32500
C 	C 	0.55830 0.17577 0.91088 0.28600
C 	C 	0.29402 0.63173 0.18236 -0.00300
C 	C 	0.27092 0.68715 0.21406 -0.05400
C 	C 	0.23596 0.68033 0.21594 0.15400
Br	Br	0.20489 0.75639 0.25417 -0.18300
C 	C 	0.22375 0.61781 0.19089 -0.09300
C 	C 	0.24654 0.56192 0.16107 0.10000
C 	C 	0.23306 0.49576 0.14695 -0.03500
C 	C 	0.23264 0.45524 0.26597 0.07400
Br	Br	0.25289 0.48338 0.44147 -0.13900
C 	C 	0.21598 0.39593 0.25991 0.11900
Br	Br	0.21754 0.33908 0.42113 -0.13000
C 	C 	0.19884 0.37778 0.13603 -0.10400
C 	C 	0.20070 0.41708 0.01399 0.11800
Br	Br	0.17707 0.39486 -0.15630 -0.13900
C 	C 	0.21798 0.47579 0.01962 0.07900
Br	Br	0.21953 0.53111 -0.14411 -0.12500
C 	C 	0.28172 0.56907 0.15406 -0.03900
H 	H 	0.28003 0.73581 0.23564 0.08900
H 	H 	0.19657 0.61253 0.19627 0.11500
H 	H 	0.29935 0.52579 0.13232 0.09100
C 	C 	0.77592 0.80968 0.63826 -0.00900
C 	C 	0.77232 0.76782 0.51485 -0.06100
C 	C 	0.74583 0.78105 0.42530 0.14300
Br	Br	0.74088 0.72313 0.25892 -0.17100
C 	C 	0.72302 0.83661 0.45727 -0.09200
C 	C 	0.72691 0.87962 0.57820 0.09600
C 	C 	0.70387 0.93976 0.61226 -0.03900
C 	C 	0.70755 0.99622 0.53117 0.07300
Br	Br	0.74048 0.99271 0.36610 -0.15600
C 	C 	0.68871 0.05627 0.57562 0.11900
Br	Br	0.69514 0.13387 0.46701 -0.13200
C 	C 	0.66665 0.06033 0.70318 -0.10100
C 	C 	0.66171 0.00268 0.77963 0.11700
Br	Br	0.62896 0.00502 0.94510 -0.14500
C 	C 	0.68027 -0.05736 0.73420 0.07700
Br	Br	0.67389 -0.13578 0.84043 -0.14500
C 	C 	0.75320 0.86577 0.66849 -0.04200
H 	H 	0.78971 0.72453 0.48899 0.09200
H 	H 	0.70247 0.84647 0.38802 0.11000
H 	H 	0.75598 0.89925 0.76198 0.08500
C 	C 	0.17195 0.07307 0.35668 -0.00600
C 	C 	0.14702 0.03648 0.42491 -0.06000
C 	C 	0.15395 0.96954 0.44828 0.14800
Br	Br	0.11941 0.91996 0.53675 -0.16300
C 	C 	0.18593 0.93867 0.40515 -0.09300
C 	C 	0.21158 0.97478 0.34123 0.09500
C 	C 	0.24552 0.94112 0.29742 -0.03300
C 	C 	0.26561 0.91456 0.40332 0.07400
Br	Br	0.25105 0.92993 0.60654 -0.13400
C 	C 	0.29627 0.87693 0.36143 0.11100
Br	Br	0.32075 0.83404 0.50808 -0.14200
C 	C 	0.30761 0.86727 0.21292 -0.10400
C 	C 	0.28841 0.89706 0.10774 0.11400
Br	Br	0.30530 0.89060 -0.09376 -0.11300
C 	C 	0.25714 0.93260 0.14945 0.07500
Br	Br	0.22927 0.96588 0.00249 -0.14300
C 	C 	0.20450 0.04213 0.31727 -0.03800
H 	H 	0.12185 0.05925 0.45686 0.09800
H 	H 	0.19087 0.88662 0.42247 0.11800
H 	H 	0.22417 0.06988 0.26622 0.09200
C 	C 	0.84194 0.54577 0.91344 -0.00900
C 	C 	0.87089 0.51122 0.95937 -0.05900
C 	C 	0.86956 0.44546 0.99735 0.14900
Br	Br	0.90865 0.39992 1.06564 -0.17000
C 	C 	0.83945 0.41331 0.98806 -0.09400
C 	C 	0.81061 0.44621 0.93765 0.09400
C 	C 	0.77829 0.41267 0.93163 -0.03500
C 	C 	0.77669 0.35436 0.84173 0.07300
Br	Br	0.81591 0.31974 0.71793 -0.13900
C 	C 	0.74612 0.32216 0.83837 0.11700
Br	Br	0.74558 0.23839 0.72846 -0.12700
C 	C 	0.71643 0.34996 0.91863 -0.10100
C 	C 	0.71775 0.40979 1.00365 0.11500
Br	Br	0.67661 0.45477 1.09563 -0.13600
C 	C 	0.74880 0.43943 1.01492 0.07300
Br	Br	0.75096 0.51516 1.15016 -0.15300
C 	C 	0.81222 0.51217 0.89822 -0.04000
H 	H 	0.89430 0.53562 0.96916 0.09800
H 	H 	0.83853 0.36278 1.02039 0.10900
H 	H 	0.78998 0.53768 0.85944 0.09000
C 	C 	0.43910 0.62860 0.45299 -0.06100
C 	C 	0.42097 0.59658 0.34766 -0.07500
C 	C 	0.43297 0.53454 0.28304 0.13100
Br	Br	0.40790 0.49092 0.14112 -0.17500
C 	C 	0.46248 0.50252 0.32743 -0.08800
C 	C 	0.48032 0.53248 0.43598 0.08400
C 	C 	0.50805 0.49388 0.49984 -0.03200
C 	C 	0.50237 0.47130 0.64063 0.07100
Br	Br	0.45814 0.48694 0.74451 -0.15900
C 	C 	0.52842 0.43493 0.70360 0.11400
Br	Br	0.51986 0.40301 0.89531 -0.17700
C 	C 	0.56016 0.41993 0.62507 -0.10400
C 	C 	0.56547 0.44038 0.48256 0.11500
Br	Br	0.60888 0.41995 0.37608 -0.14000
C 	C 	0.53951 0.47760 0.42004 0.07000
Br	Br	0.54731 0.50741 0.22658 -0.14600
C 	C 	0.46903 0.59604 0.49603 -0.02300
H 	H 	0.39677 0.61777 0.32055 -0.05700
H 	H 	0.47071 0.45320 0.28179 0.10800
H 	H 	0.48274 0.61853 0.58143 0.08300
C 	C 	0.90101 0.96978 0.87195 -0.01400
C 	C 	0.87475 1.01056 0.82126 -0.05400
C 	C 	0.87777 1.07879 0.81435 0.13700
Br	Br	0.84182 0.13347 0.74588 -0.15100
C 	C 	0.90701 0.10705 0.85798 -0.08000
C 	C 	0.93348 1.06709 0.90796 0.08700
C 	C 	0.96430 0.09760 0.95290 -0.04200
C 	C 	-0.00939 0.10846 0.84810 0.07600
Br	Br	0.98801 0.07545 0.64973 -0.13500
C 	C 	0.01875 0.14266 0.88825 0.10700
Br	Br	0.05486 0.15634 0.74316 -0.16500
C 	C 	0.02095 0.16494 0.03458 -0.09400
C 	C 	-0.00479 0.15119 0.14056 0.11100
Br	Br	-0.00223 0.17993 0.34160 -0.12000
C 	C 	0.96675 0.11833 0.09932 0.08800
Br	Br	0.93050 1.10322 0.24250 -0.15000
C 	C 	0.93053 0.99858 0.91473 -0.03800
H 	H 	0.85185 0.98969 0.78680 0.09100
H 	H 	0.90921 0.15999 0.85274 0.10600
H 	H 	0.95120 0.96808 0.95312 0.08400
C 	C 	0.52441 0.14877 0.91353 -0.00700
C 	C 	0.49626 0.18874 0.87597 -0.06100
C 	C 	0.46400 0.16435 0.87756 0.15000
Br	Br	0.42605 0.21996 0.82922 -0.16300
C 	C 	0.45940 0.09960 0.91574 -0.09500
C 	C 	0.48717 0.05894 0.95278 0.10000
C 	C 	0.48176 -0.00980 0.98937 -0.04400
C 	C 	0.46705 -0.02245 0.12742 0.08800
Br	Br	0.46021 0.04848 0.27748 -0.14400
C 	C 	0.45658 0.91387 0.15454 0.10500
Br	Br	0.43442 0.89920 0.34201 -0.14200
C 	C 	0.46074 0.86282 0.04258 -0.08900
C 	C 	0.47848 0.87435 0.90926 0.10800
Br	Br	0.48956 0.80276 0.76400 -0.13700
C 	C 	0.48861 0.93812 0.88216 0.07700
Br	Br	0.51000 0.95535 0.69493 -0.14400
C 	C 	0.51961 0.08340 0.95181 -0.04300
H 	H 	0.49925 0.23905 0.84555 0.10000
H 	H 	0.43432 0.08081 0.91636 0.10800
H 	H 	0.54097 0.05128 0.97929 0.09400
C 	C 	0.05827 0.41525 0.34429 -0.02400
C 	C 	0.08603 0.43432 0.25690 -0.04600
C 	C 	0.08949 0.50149 0.23396 0.13900
Br	Br	0.12697 0.52786 0.11404 -0.18200
C 	C 	0.06557 0.54982 0.29957 -0.08800
C 	C 	0.03800 0.53138 0.38873 0.09100
C 	C 	0.01354 0.58219 0.46527 -0.03400
C 	C 	0.02389 0.62344 0.57969 0.06900
Br	Br	0.07067 0.61812 0.62894 -0.14600
C 	C 	0.99979 0.66630 0.66363 0.11900
Br	Br	1.01444 0.72392 0.81758 -0.14300
C 	C 	0.96509 0.66706 0.63567 -0.10800
C 	C 	0.95498 0.62774 0.51732 0.11600
Br	Br	0.90756 0.62595 0.47907 -0.18300
C 	C 	0.97922 0.58579 0.43190 0.07100
Br	Br	0.96534 0.53239 0.26974 -0.15100
C 	C 	0.03433 0.46398 0.40975 -0.03200
H 	H 	0.10440 0.39713 0.20420 0.01900
H 	H 	0.06868 0.60164 0.28250 0.11000
H 	H 	0.01318 0.44963 0.47978 0.08600
