data_crystal

_cell_length_a 30.97110
_cell_length_b 21.13810
_cell_length_c 5.88800
_cell_angle_alpha 87.19680
_cell_angle_beta  100.16100
_cell_angle_gamma 85.82020

_symmetry_space_group_name_	'P 1'
_symmetry_space_group_name_H-M	'P 1'

loop_
_symmetry_equiv_pos_as_xyz
  x,y,z

loop_
_atom_site_label
_atom_site_type_symbol
_atom_site_fract_x
_atom_site_fract_y
_atom_site_fract_z
_atom_site_charge
Eu	Eu	0.35247 0.75125 0.01438 1.89200
O 	O 	0.28641 0.85620 -0.02873 -0.19600
C 	C 	0.26467 0.69960 0.12091 0.26000
O 	O 	0.45087 0.74705 -0.08357 -0.20100
O 	O 	0.39632 0.82530 -0.09416 -0.33200
O 	O 	0.38403 0.62308 -0.00504 -0.31800
O 	O 	0.25597 0.75063 0.19652 -0.23100
O 	O 	0.30828 0.67775 0.12406 -0.42700
O 	O 	0.33720 0.81948 0.28248 -0.36100
C 	C 	0.30758 0.86743 0.15877 0.25600
O 	O 	0.40990 0.69310 0.24792 -0.40100
C 	C 	0.41090 0.63251 0.16464 0.28400
C 	C 	0.44035 0.80372 -0.08222 0.26800
Eu	Eu	0.88739 0.72902 0.86562 1.96600
O 	O 	0.81013 0.79536 1.04269 -0.28000
C 	C 	0.81553 0.63017 0.87497 0.27600
O 	O 	0.96986 0.77840 1.14747 -0.24900
O 	O 	0.91643 0.82505 0.86634 -0.44000
O 	O 	0.97793 0.69964 0.74182 -0.18100
O 	O 	0.79280 0.67964 0.87116 -0.25000
O 	O 	0.85971 0.63113 0.85786 -0.38200
O 	O 	0.82436 0.78495 0.68231 -0.41500
C 	C 	0.80790 0.81992 0.84731 0.26300
O 	O 	0.90965 0.70819 0.52595 -0.41400
C 	C 	0.95289 0.68111 0.57927 0.22600
C 	C 	0.95407 0.82680 1.03321 0.27400
Eu	Eu	0.12890 0.25601 0.19293 1.88000
O 	O 	0.22964 0.23039 0.38260 -0.23800
C 	C 	0.16298 0.38323 0.05626 0.26100
O 	O 	0.10136 0.16367 -0.17747 -0.24400
O 	O 	0.08268 0.17687 0.17272 -0.34900
O 	O 	0.04389 0.33397 0.04754 -0.29100
O 	O 	0.14481 0.36986 -0.13429 -0.23100
O 	O 	0.17463 0.33581 0.23249 -0.35300
O 	O 	0.16932 0.20224 0.51451 -0.41000
C 	C 	0.21247 0.18977 0.48294 0.24900
O 	O 	0.08557 0.31164 0.40027 -0.40600
C 	C 	0.05134 0.34634 0.25031 0.29800
C 	C 	0.08218 0.14387 -0.02757 0.26100
Eu	Eu	0.63399 0.22017 0.93845 1.92800
O 	O 	0.68651 0.10880 0.83071 -0.24900
C 	C 	0.71439 0.29687 1.10114 0.26400
O 	O 	0.55240 0.16267 1.04140 -0.29000
O 	O 	0.59821 0.13573 0.79653 -0.42800
O 	O 	0.57773 0.32581 1.04644 -0.18400
O 	O 	0.73261 0.24318 1.11953 -0.11100
O 	O 	0.66875 0.30583 1.07267 -0.33300
O 	O 	0.68039 0.20927 0.67880 -0.36100
C 	C 	0.70223 0.14851 0.72039 0.24100
O 	O 	0.58391 0.28877 0.69894 -0.35200
C 	C 	0.56515 0.33091 0.83710 0.25600
C 	C 	0.56266 0.12516 0.90486 0.27800
C 	C 	0.22977 0.65751 0.04584 -0.00700
C 	C 	0.18992 0.66228 0.12842 -0.08500
C 	C 	0.15918 0.61691 0.08015 0.22900
O 	O 	0.12058 0.62544 0.17125 -0.23500
C 	C 	0.16911 0.56433 -0.05010 -0.07300
C 	C 	0.14622 0.50255 -0.05531 0.47300
F 	F 	0.10648 0.50870 0.02050 -0.40800
F 	F 	0.13703 0.48560 -0.28128 -0.38800
C 	C 	0.17582 0.44930 0.10282 0.35200
F 	F 	0.17202 0.46006 0.32939 -0.34700
F 	F 	0.22021 0.45025 0.08978 -0.38300
C 	C 	0.20657 0.56520 -0.15594 0.05800
C 	C 	0.23695 0.61017 -0.10447 -0.02500
H 	H 	0.18321 0.70006 0.23853 0.10700
H 	H 	0.09365 0.61122 0.07154 0.24400
H 	H 	0.21436 0.52748 -0.26422 0.11300
H 	H 	0.26673 0.60688 -0.17721 0.06100
C 	C 	0.79278 0.88788 0.80036 -0.00800
C 	C 	0.76540 0.91704 0.93754 -0.09100
C 	C 	0.75926 0.98327 0.93657 0.19600
O 	O 	0.73329 1.00961 1.08429 -0.20300
C 	C 	0.78072 0.02188 0.79574 -0.06800
C 	C 	0.78068 0.09371 0.81343 0.46700
F 	F 	0.77622 0.10962 1.03489 -0.35500
F 	F 	0.82173 0.11193 0.78469 -0.33900
C 	C 	0.74432 0.13219 0.63040 0.36600
F 	F 	0.73431 0.09870 0.43467 -0.39700
F 	F 	0.76030 0.18864 0.56665 -0.31100
C 	C 	0.80520 -0.00796 0.64418 0.05400
C 	C 	0.81079 0.92570 0.64485 -0.03500
H 	H 	0.75087 0.88846 1.05688 0.09200
H 	H 	0.70218 0.99515 1.04794 0.15500
H 	H 	0.82168 0.02041 0.53219 0.11200
H 	H 	0.83146 0.90437 0.53443 0.06000
C 	C 	0.23483 0.12523 0.53082 0.00700
C 	C 	0.28011 0.11528 0.53236 -0.08800
C 	C 	0.30091 0.05390 0.54467 0.24900
O 	O 	0.34661 0.04934 0.55600 -0.24700
C 	C 	0.27524 1.00052 0.53692 -0.07000
C 	C 	0.29303 0.93397 0.48791 0.47000
F 	F 	0.32989 0.91346 0.65055 -0.40100
F 	F 	0.26198 0.89070 0.50569 -0.41800
C 	C 	0.30402 0.93339 0.24173 0.36600
F 	F 	0.34385 0.95839 0.23740 -0.36900
F 	F 	0.27166 0.97060 0.09024 -0.39200
C 	C 	0.23018 1.01119 0.55048 0.08400
C 	C 	0.21033 0.07276 0.54753 -0.03500
H 	H 	0.29970 0.15542 0.52555 0.11600
H 	H 	0.36171 0.00552 0.59479 0.26000
H 	H 	0.20929 0.97228 0.55011 0.10800
H 	H 	0.17526 0.07902 0.54728 0.10200
C 	C 	0.79589 0.56904 0.88981 0.00800
C 	C 	0.75613 0.56600 0.96977 -0.08700
C 	C 	0.73496 0.50960 0.96969 0.23900
O 	O 	0.69485 0.51254 1.04979 -0.23900
C 	C 	0.75453 0.45368 0.88875 -0.06700
C 	C 	0.73342 0.39059 0.87663 0.46100
F 	F 	0.68917 0.40112 0.78328 -0.38200
F 	F 	0.75149 0.35215 0.72768 -0.34500
C 	C 	0.74086 0.35394 1.11542 0.37500
F 	F 	0.72789 0.39203 1.27957 -0.35400
F 	F 	0.78519 0.33492 1.18259 -0.32900
C 	C 	0.79556 0.45711 0.81803 0.07000
C 	C 	0.81612 0.51383 0.82093 -0.03500
H 	H 	0.74077 0.60826 1.02855 0.11100
H 	H 	0.67870 0.47281 1.04256 0.26000
H 	H 	0.81213 0.41579 0.75853 0.12300
H 	H 	0.84716 0.51471 0.76065 0.11600
C 	C 	0.44301 0.57999 0.27682 0.00400
C 	C 	0.43765 0.51772 0.21041 -0.08500
C 	C 	0.46907 0.46755 0.29555 0.24900
O 	O 	0.46023 0.40809 0.21133 -0.22500
C 	C 	0.50728 0.47907 0.45736 -0.07000
C 	C 	0.54369 0.42700 0.55602 0.46500
F 	F 	0.55668 0.39448 0.37884 -0.37900
F 	F 	0.58076 0.45366 0.66689 -0.37500
C 	C 	0.52885 0.38092 0.73287 0.37300
F 	F 	0.49317 0.35001 0.63455 -0.39600
F 	F 	0.51620 0.41605 0.90455 -0.37300
C 	C 	0.51141 0.54165 0.52917 0.06400
C 	C 	0.47976 0.59139 0.44003 -0.03100
H 	H 	0.40911 0.50792 0.08575 0.11500
H 	H 	0.48532 0.37382 0.24330 0.25700
H 	H 	0.53917 0.55282 0.65539 0.10400
H 	H 	0.48439 0.63890 0.49578 0.09700
C 	C 	0.97451 0.88768 1.06653 0.00600
C 	C 	0.95158 0.94470 0.96656 -0.06800
C 	C 	0.97042 0.00296 -0.01091 0.20900
O 	O 	0.94431 0.05679 0.88113 -0.20400
C 	C 	1.01404 0.00451 0.11591 -0.06600
C 	C 	0.03720 0.06560 0.15066 0.46700
F 	F 	1.00779 0.11487 0.18774 -0.38200
F 	F 	0.06946 0.05751 0.34869 -0.37300
C 	C 	0.05955 0.08309 -0.05644 0.34800
F 	F 	0.02887 0.09010 0.74041 -0.34700
F 	F 	0.09075 0.03452 -0.07762 -0.37800
C 	C 	0.03673 0.94652 0.21529 0.06400
C 	C 	1.01720 0.88911 0.19288 -0.04300
H 	H 	0.91838 0.94459 0.86991 0.09600
H 	H 	0.95975 0.09653 -0.13526 0.23900
H 	H 	0.07006 0.94518 0.31136 0.10300
H 	H 	1.03574 0.84572 0.27177 0.09000
C 	C 	0.53831 0.06801 0.85869 -0.00400
C 	C 	0.49758 0.06251 0.92799 -0.08400
C 	C 	0.47449 0.00832 0.88718 0.23600
O 	O 	0.43406 0.00823 0.96334 -0.23600
C 	C 	0.49270 0.95722 0.77408 -0.07200
C 	C 	0.46964 0.89655 0.72391 0.46700
F 	F 	0.42599 0.91267 0.62755 -0.38700
F 	F 	0.48774 0.86368 0.56149 -0.36000
C 	C 	0.47458 0.85126 -0.05801 0.35700
F 	F 	0.47030 0.88485 0.13242 -0.36200
F 	F 	0.51630 0.81975 -0.01755 -0.35600
C 	C 	0.53389 0.96328 0.70733 0.05400
C 	C 	0.55619 0.01796 0.74749 -0.03100
H 	H 	0.48328 0.10081 1.01423 0.11300
H 	H 	0.41843 0.96812 0.94480 0.25300
H 	H 	0.54915 0.92573 0.62251 0.10300
H 	H 	0.58780 0.02049 0.69430 0.07100
C 	C 	0.02521 0.39874 0.33428 0.00800
C 	C 	0.98681 0.42827 0.19526 -0.07100
C 	C 	0.96298 0.47964 0.27078 0.24400
O 	O 	0.92455 0.50408 0.12172 -0.23100
C 	C 	0.97863 0.50382 0.48979 -0.07300
C 	C 	0.95739 0.56281 0.58044 0.45800
F 	F 	0.91253 0.55926 0.55845 -0.43900
F 	F 	-0.02654 0.56515 0.81523 -0.40000
C 	C 	0.96740 0.62484 0.45608 0.37100
F 	F 	0.94573 0.63111 0.22910 -0.45800
F 	F 	1.01225 0.62445 0.45749 -0.36900
C 	C 	0.01680 0.47252 0.62821 0.06500
C 	C 	0.03924 0.42056 0.55238 -0.00400
H 	H 	0.97505 0.41139 0.02667 0.11300
H 	H 	0.90618 0.53883 0.18059 0.21900
H 	H 	0.03004 0.48853 0.79590 0.12700
H 	H 	0.06848 0.39867 0.66345 0.10200
