data_crystal

_cell_length_a 30.94550
_cell_length_b 14.95900
_cell_length_c 8.95980
_cell_angle_alpha 101.87210
_cell_angle_beta  89.42740
_cell_angle_gamma 89.71380

_symmetry_space_group_name_	'P 1'
_symmetry_space_group_name_H-M	'P 1'

loop_
_symmetry_equiv_pos_as_xyz
  x,y,z

loop_
_atom_site_label
_atom_site_type_symbol
_atom_site_fract_x
_atom_site_fract_y
_atom_site_fract_z
_atom_site_charge
Eu	Eu	0.41287 0.74035 0.17645 1.94500
O 	O 	0.34884 0.90742 0.19890 -0.17700
C 	C 	0.34118 0.59965 0.11624 0.27600
O 	O 	0.51025 0.92376 0.25178 -0.15200
O 	O 	0.44065 0.88365 0.21403 -0.35700
O 	O 	0.46781 0.57822 0.24337 -0.23400
O 	O 	0.33078 0.62362 -0.00025 -0.23600
O 	O 	0.38474 0.59745 0.15085 -0.41000
O 	O 	0.35488 0.79309 0.32853 -0.36600
C 	C 	0.33051 0.85555 0.26791 0.24000
O 	O 	0.45316 0.72052 0.37912 -0.39800
C 	C 	0.47868 0.64193 0.34343 0.28800
C 	C 	0.48356 0.88093 0.16658 0.19100
Eu	Eu	0.87617 0.75482 0.71315 1.97300
O 	O 	0.77460 0.74997 0.41745 -0.18100
C 	C 	0.80350 0.68877 0.90355 0.29100
O 	O 	0.94625 0.84538 0.91627 -0.25800
O 	O 	0.93088 0.84915 0.67166 -0.40500
O 	O 	0.91617 0.48256 0.56695 -0.14200
O 	O 	0.79715 0.76998 0.95260 -0.27100
O 	O 	0.82298 0.65910 0.76123 -0.40900
O 	O 	0.84276 0.77733 0.49793 -0.40400
C 	C 	0.79846 0.79059 0.51658 0.27900
O 	O 	0.90635 0.63062 0.55303 -0.34400
C 	C 	0.92028 0.56285 0.62830 0.19300
C 	C 	0.95769 0.86760 0.79815 0.30900
Eu	Eu	0.09943 0.26072 0.06317 2.07800
O 	O 	0.16815 0.10708 -0.00886 -0.23600
C 	C 	0.18508 0.37536 0.14260 0.19600
O 	O 	-0.01069 0.21595 -0.22802 -0.11000
O 	O 	0.02974 0.23293 -0.01561 -0.36700
O 	O 	0.03540 0.41305 0.23937 -0.23800
O 	O 	0.21748 0.38425 0.06840 -0.16700
O 	O 	0.16982 0.28725 0.13946 -0.35600
O 	O 	0.10342 0.11653 0.11134 -0.38900
C 	C 	0.14357 0.07556 0.07366 0.29200
O 	O 	0.07597 0.30249 0.30894 -0.37900
C 	C 	0.05299 0.38466 0.34101 0.32900
C 	C 	0.02503 0.20927 -0.17373 0.17700
Eu	Eu	0.61386 0.27496 0.91428 1.97400
O 	O 	0.64606 0.12058 0.61155 -0.16600
C 	C 	0.68682 0.36487 1.11453 0.19200
O 	O 	0.55606 0.18112 1.29812 -0.15200
O 	O 	0.59261 0.26201 1.15356 -0.35700
O 	O 	0.56299 0.26771 0.61933 -0.21900
O 	O 	0.70014 0.35412 1.23754 -0.11100
O 	O 	0.68335 0.28870 0.99623 -0.35200
O 	O 	0.62569 0.12117 0.85613 -0.37600
C 	C 	0.64159 0.07816 0.71291 0.23700
O 	O 	0.63244 0.30152 0.68179 -0.33600
C 	C 	0.59421 0.31523 0.60757 0.24000
C 	C 	0.56661 0.18845 1.16961 0.29100
C 	C 	0.30788 0.58020 0.22521 -0.02200
C 	C 	0.31852 0.58131 0.37766 -0.02800
C 	C 	0.28621 0.57298 0.48452 0.11900
N 	N 	0.29709 0.57907 0.64113 -0.18700
C 	C 	0.24308 0.56288 0.43933 -0.01800
C 	C 	0.23184 0.55810 0.28625 -0.00600
C 	C 	0.18478 0.55060 0.23942 0.44300
F 	F 	0.18039 0.56647 0.09318 -0.41600
F 	F 	0.16156 0.61847 0.33632 -0.39100
C 	C 	0.16430 0.45713 0.24670 0.35900
F 	F 	0.12155 0.46085 0.20764 -0.46600
F 	F 	0.16584 0.44358 0.39484 -0.41700
C 	C 	0.26467 0.56714 0.18014 0.04700
H 	H 	0.35162 0.59144 0.41465 0.06600
H 	H 	0.32916 0.58425 0.67570 0.12300
H 	H 	0.27335 0.57431 0.72260 0.13900
H 	H 	0.21820 0.55935 0.52381 0.11600
H 	H 	0.25663 0.56463 0.06186 0.11100
C 	C 	0.78033 0.85703 0.64931 -0.09300
C 	C 	0.80689 0.91587 0.75156 -0.01900
C 	C 	0.78836 0.98371 0.86633 0.08000
N 	N 	0.81580 1.04300 -0.03115 -0.12600
C 	C 	0.74314 0.99232 0.88147 -0.02300
C 	C 	0.71629 -0.06827 0.78487 -0.02100
C 	C 	0.66741 -0.06585 0.80297 0.44200
F 	F 	0.65533 -0.01916 0.94764 -0.39400
F 	F 	0.65344 -0.15497 0.79179 -0.35200
C 	C 	0.64455 -0.02487 0.67751 0.36600
F 	F 	0.60283 -0.05756 0.66307 -0.36500
F 	F 	0.66512 0.94689 0.53778 -0.39900
C 	C 	0.73529 0.86581 0.66848 0.06400
H 	H 	0.84185 0.90919 0.74467 -0.05100
H 	H 	0.80294 1.09005 0.06179 0.05200
H 	H 	0.80362 1.09025 0.06218 0.05000
H 	H 	0.72920 1.04551 -0.03055 0.10200
H 	H 	0.71484 -0.17928 0.59002 0.09400
C 	C 	0.15627 -0.00575 0.13417 -0.01800
C 	C 	0.12645 0.95302 0.21741 -0.04200
C 	C 	0.13834 0.87701 0.27708 0.13700
N 	N 	0.10809 0.83724 0.36526 -0.19300
C 	C 	0.18028 0.84085 0.25135 -0.03900
C 	C 	0.21074 0.88093 0.16826 0.02900
C 	C 	0.25650 0.84278 0.14434 0.43200
F 	F 	0.27754 0.87983 0.03434 -0.40700
F 	F 	0.25448 0.74930 0.08952 -0.40300
C 	C 	0.28223 0.86291 0.29535 0.36600
F 	F 	0.27005 0.80115 0.38396 -0.38300
F 	F 	0.27292 0.95045 0.37723 -0.37800
C 	C 	0.19832 0.95758 0.11005 0.01500
H 	H 	0.09372 -0.02090 0.23450 0.11500
H 	H 	0.07699 0.86430 0.38688 0.14100
H 	H 	0.11691 0.78187 0.41277 0.15700
H 	H 	0.18933 0.78212 0.29754 0.14500
H 	H 	0.22154 -0.00991 0.04763 0.11500
C 	C 	0.79206 0.62187 0.99652 -0.02100
C 	C 	0.82388 0.56195 1.02876 -0.05600
C 	C 	0.81418 0.49928 0.12026 0.13000
N 	N 	0.84713 0.44016 0.15661 -0.19300
C 	C 	0.77210 0.49514 0.17725 -0.03700
C 	C 	0.73922 0.55228 1.14164 -0.00400
C 	C 	0.69286 0.54143 1.19342 0.44500
F 	F 	0.66878 0.61813 0.18205 -0.36400
F 	F 	0.69210 0.53485 0.34556 -0.38200
C 	C 	0.67089 0.45640 1.09138 0.35200
F 	F 	0.62682 0.46122 1.12238 -0.40700
F 	F 	0.67715 0.46067 0.93933 -0.39600
C 	C 	0.74989 0.61744 1.05360 0.03800
H 	H 	0.85659 0.56592 0.98608 0.10700
H 	H 	0.87922 0.44623 0.12254 0.14400
H 	H 	0.83990 0.39040 0.21958 0.12600
H 	H 	0.76528 0.44729 0.24950 0.10100
H 	H 	0.72519 0.66228 1.02383 0.12000
C 	C 	0.52019 0.63825 0.41945 -0.00300
C 	C 	0.55179 0.70333 0.40823 -0.02500
C 	C 	0.59321 0.69506 0.46496 0.18900
N 	N 	0.62643 0.75656 0.44021 -0.17100
C 	C 	0.60253 0.62404 0.54051 -0.00700
C 	C 	0.57072 0.55979 0.55698 0.05000
C 	C 	0.58028 0.48293 0.63908 0.42700
F 	F 	0.54456 0.47097 0.72792 -0.41500
F 	F 	0.61505 0.50554 0.73606 -0.36500
C 	C 	0.59039 0.39302 0.52514 0.37500
F 	F 	0.62879 0.40150 0.44889 -0.34700
F 	F 	0.55763 0.37443 0.41927 -0.38500
C 	C 	0.52973 0.56656 0.49310 0.03700
H 	H 	0.54487 0.75791 0.34869 0.10900
H 	H 	0.62001 0.80901 0.38188 0.19900
H 	H 	0.65828 0.74546 0.46893 0.18200
H 	H 	0.63472 0.61842 0.58381 0.16000
H 	H 	0.50517 0.51613 0.50051 0.10400
C 	C 	1.00100 0.90647 0.78586 -0.04000
C 	C 	0.03698 0.86958 0.84681 -0.02500
C 	C 	0.07879 0.89811 0.81981 0.09900
N 	N 	0.11535 0.85245 0.86688 -0.19700
C 	C 	0.08455 0.96941 0.74213 -0.03000
C 	C 	0.04876 1.01075 0.68736 -0.03600
C 	C 	0.05559 0.08912 0.60651 0.43500
F 	F 	0.02072 0.09806 0.51434 -0.40000
F 	F 	0.09158 0.07051 0.51172 -0.39400
C 	C 	0.06303 0.18014 -0.28051 0.37600
F 	F 	0.06937 0.24645 -0.36451 -0.39900
F 	F 	0.10011 0.17374 -0.19914 -0.57200
C 	C 	0.00705 0.97674 0.70547 0.03900
H 	H 	0.03286 0.81667 0.91099 0.11800
H 	H 	0.11148 0.80343 -0.06642 0.13300
H 	H 	0.14665 0.86782 0.83582 0.12600
H 	H 	0.11691 0.99267 0.72402 0.10500
H 	H 	0.97921 0.00628 0.66073 0.07800
C 	C 	0.55127 0.11938 1.03965 -0.07500
C 	C 	0.53040 0.14382 0.91555 -0.05500
C 	C 	0.51317 0.07631 0.79961 0.11200
N 	N 	0.49167 0.10124 0.67333 -0.19000
C 	C 	0.51596 0.98405 0.80988 -0.00400
C 	C 	0.53681 0.95830 0.93328 0.00300
C 	C 	0.53885 0.85840 0.94609 0.46000
F 	F 	0.57285 0.84379 1.03809 -0.36100
F 	F 	0.54686 0.80492 0.80285 -0.35000
C 	C 	0.49622 0.82679 1.01035 0.33600
F 	F 	0.50030 0.73582 1.01867 -0.43900
F 	F 	0.46316 0.83375 0.91054 -0.44500
C 	C 	0.55467 0.02680 1.04684 0.05400
H 	H 	0.52659 0.21504 0.91100 -0.00100
H 	H 	0.48688 0.16978 0.66920 0.12700
H 	H 	0.48065 0.05120 0.58276 0.13500
H 	H 	0.50180 0.93236 0.72161 0.11700
H 	H 	0.57102 1.00850 0.14299 0.11500
C 	C 	0.05288 0.43852 0.49869 -0.00600
C 	C 	0.08544 0.42189 0.59713 -0.00800
C 	C 	0.08542 0.46679 0.74922 0.11900
N 	N 	0.11824 0.44672 0.84794 -0.20700
C 	C 	0.05337 0.53170 0.80419 -0.02700
C 	C 	0.02103 0.55228 0.70671 -0.00300
C 	C 	-0.01234 0.62603 0.76577 0.43900
F 	F 	-0.01245 0.68726 0.66944 -0.44600
F 	F 	-0.00090 0.67322 0.90932 -0.40200
C 	C 	0.94186 0.58826 0.78053 0.35300
F 	F 	0.91682 0.65386 0.87418 -0.51000
F 	F 	0.94415 0.51285 0.84759 -0.39900
C 	C 	0.02135 0.50581 0.55284 0.03800
H 	H 	0.11082 0.37240 0.55639 0.12800
H 	H 	0.14090 0.39447 0.81158 0.10800
H 	H 	0.12070 0.48688 0.95695 0.15200
H 	H 	0.05369 0.56514 0.92321 0.11400
H 	H 	0.99696 0.52091 0.47553 0.08100
