data_crystal

_cell_length_a 31.46150
_cell_length_b 17.55010
_cell_length_c 8.84160
_cell_angle_alpha 101.16250
_cell_angle_beta  82.95690
_cell_angle_gamma 86.36630

_symmetry_space_group_name_	'P 1'
_symmetry_space_group_name_H-M	'P 1'

loop_
_symmetry_equiv_pos_as_xyz
  x,y,z

loop_
_atom_site_label
_atom_site_type_symbol
_atom_site_fract_x
_atom_site_fract_y
_atom_site_fract_z
_atom_site_charge
Eu	Eu	0.42144 0.71491 0.19740 1.87200
O 	O 	0.35010 0.81222 0.15343 -0.23800
C 	C 	0.35147 0.59314 0.18041 0.29800
O 	O 	0.46944 0.77213 -0.08271 -0.25000
O 	O 	0.48654 0.76373 0.15504 -0.35300
O 	O 	0.47349 0.57496 0.18374 -0.31100
O 	O 	0.37811 0.55977 0.07225 -0.27900
O 	O 	0.35678 0.66809 0.25747 -0.40800
O 	O 	0.39050 0.83054 0.34777 -0.35100
C 	C 	0.35360 0.84818 0.28348 0.24600
O 	O 	0.44659 0.66658 0.39355 -0.40500
C 	C 	0.47162 0.59765 0.32385 0.30500
C 	C 	0.49624 0.77906 0.00646 0.22600
Eu	Eu	0.87675 0.72743 0.86965 1.88700
O 	O 	0.85846 0.86649 0.71157 -0.22600
C 	C 	0.80579 0.61543 0.88195 0.30000
O 	O 	0.94002 0.78606 1.09280 -0.23200
O 	O 	0.90647 0.84283 0.92695 -0.40200
O 	O 	0.96445 0.67927 0.68327 -0.23100
O 	O 	0.79300 0.66830 0.99266 -0.27600
O 	O 	0.84788 0.61120 0.80970 -0.43700
O 	O 	0.81474 0.79183 0.83028 -0.40200
C 	C 	0.82178 0.85308 0.75343 0.28500
O 	O 	0.90091 0.71613 0.61255 -0.35300
C 	C 	0.94434 0.69120 0.57871 0.22600
C 	C 	0.93440 0.84354 1.03719 0.28000
Eu	Eu	0.11094 0.22578 0.05199 1.88900
O 	O 	0.19580 0.15011 0.08268 -0.27800
C 	C 	0.17890 0.33966 -0.00476 0.26400
O 	O 	0.04258 0.22361 -0.14389 -0.23600
O 	O 	0.06589 0.13249 -0.01811 -0.39800
O 	O 	0.06184 0.38016 0.07189 -0.26800
O 	O 	0.17528 0.30501 -0.13569 -0.23200
O 	O 	0.15531 0.31993 0.12398 -0.35700
O 	O 	0.13202 0.16272 0.23598 -0.41900
C 	C 	0.17555 0.13755 0.20043 0.30500
O 	O 	0.05635 0.29382 0.22979 -0.39900
C 	C 	0.04294 0.36289 0.18748 0.30600
C 	C 	0.03757 0.16071 -0.10760 0.23700
Eu	Eu	0.60639 0.25334 0.82267 1.99200
O 	O 	0.68171 0.17382 0.94371 -0.19500
C 	C 	0.64077 0.41051 0.93835 0.22100
O 	O 	0.52371 0.19191 0.85389 -0.28200
O 	O 	0.58931 0.13074 0.83915 -0.41400
O 	O 	0.52906 0.31329 0.68197 -0.22900
O 	O 	0.65813 0.36788 1.01116 -0.17700
O 	O 	0.62040 0.37800 0.81327 -0.37200
O 	O 	0.67541 0.21028 0.71505 -0.34900
C 	C 	0.69954 0.18299 0.81865 0.22300
O 	O 	0.59017 0.23686 0.57474 -0.34200
C 	C 	0.55297 0.28185 0.56400 0.24500
C 	C 	0.54472 0.13457 0.87210 0.30700
C 	C 	0.31315 0.55528 0.23341 -0.03000
C 	C 	0.28937 0.58685 0.38000 -0.04000
C 	C 	0.25317 0.55248 0.43477 0.10900
C 	C 	0.22835 0.58509 0.59270 -0.22700
C 	C 	0.24010 0.48694 0.34114 -0.02400
C 	C 	0.26291 0.45470 0.19321 0.01900
C 	C 	0.24731 0.38352 0.09579 0.43600
F 	F 	0.27974 0.34624 -0.02048 -0.37900
F 	F 	0.23776 0.33124 0.19177 -0.40200
C 	C 	0.20740 0.40557 0.01967 0.36700
F 	F 	0.18247 0.46962 0.11181 -0.39400
F 	F 	0.22111 0.42505 -0.12200 -0.37100
C 	C 	0.29988 0.48884 0.14065 0.02600
H 	H 	0.29914 0.63794 0.45288 0.08500
H 	H 	0.24388 0.63407 0.65714 0.11700
H 	H 	0.22639 0.53876 0.66229 0.14000
H 	H 	0.19531 0.60673 0.57989 0.12700
H 	H 	0.21200 0.46062 0.38400 0.11500
H 	H 	0.31781 0.46468 0.02715 0.10600
C 	C 	0.78505 0.90198 0.72355 -0.00700
C 	C 	0.74381 0.87595 0.73416 -0.05700
C 	C 	0.70864 0.92223 0.70739 0.12800
C 	C 	0.66460 0.89435 0.71806 -0.24200
C 	C 	0.71471 0.99583 0.67289 -0.07300
C 	C 	0.75569 0.02321 0.66273 0.05100
C 	C 	0.76179 0.10402 0.63031 0.42400
F 	F 	0.80473 0.10951 0.57912 -0.35300
F 	F 	0.73889 0.11607 0.51139 -0.37900
C 	C 	0.74772 0.16838 0.77758 0.38000
F 	F 	0.76569 0.14852 0.90180 -0.36300
F 	F 	0.76326 0.23745 0.75179 -0.36300
C 	C 	0.79089 0.97530 0.68632 -0.01900
H 	H 	0.73894 0.81947 0.76246 0.09200
H 	H 	0.66486 0.83450 0.74223 0.15800
H 	H 	0.65143 0.89419 0.60712 0.14000
H 	H 	0.64345 0.93429 0.81368 0.14300
H 	H 	0.68726 1.03169 0.65430 0.09000
H 	H 	0.82267 -0.00422 0.67972 0.14300
C 	C 	0.19705 0.09638 0.30463 -0.05000
C 	C 	0.17909 0.10444 0.46019 0.00000
C 	C 	0.19940 1.06593 0.56018 0.05000
C 	C 	0.18127 1.07790 0.72840 -0.15800
C 	C 	0.23753 1.01745 0.50357 -0.01400
C 	C 	0.25585 1.00793 0.34684 -0.00700
C 	C 	0.29648 0.95558 0.27407 0.43700
F 	F 	0.28653 0.90766 0.14127 -0.40100
F 	F 	0.32682 0.00304 0.22900 -0.40900
C 	C 	0.31659 0.90410 0.37624 0.37100
F 	F 	0.28582 0.85986 0.43273 -0.39800
F 	F 	0.33137 0.95080 0.50056 -0.38900
C 	C 	0.23558 0.04907 0.24960 0.06200
H 	H 	0.14980 0.14211 0.50448 0.05900
H 	H 	0.15207 1.11990 0.75789 0.00500
H 	H 	0.20607 1.10132 0.79871 0.08000
H 	H 	0.17279 1.02153 0.75741 0.08000
H 	H 	0.25259 0.98846 0.58316 0.11700
H 	H 	0.24958 0.04273 0.12894 0.10500
C 	C 	0.77634 0.55819 0.82019 -0.03700
C 	C 	0.79205 0.49394 0.70061 -0.03800
C 	C 	0.76378 0.44287 0.63331 0.11600
C 	C 	0.78032 0.37549 0.50237 -0.23500
C 	C 	0.71957 0.45638 0.68577 -0.03300
C 	C 	0.70328 0.52048 0.80511 -0.00100
C 	C 	0.65525 0.53816 0.85539 0.43300
F 	F 	0.64564 0.61793 0.90598 -0.34900
F 	F 	0.63348 0.51595 0.72917 -0.39700
C 	C 	0.63904 0.49780 0.98901 0.37600
F 	F 	0.66289 0.51695 1.11064 -0.36700
F 	F 	0.59664 0.52522 1.04362 -0.36900
C 	C 	0.73207 0.57029 0.87316 0.03500
H 	H 	0.82610 0.48417 0.65802 0.06700
H 	H 	0.81594 0.37096 0.47631 0.12500
H 	H 	0.76662 0.38328 0.39586 0.14200
H 	H 	0.77061 0.32017 0.53339 0.17100
H 	H 	0.69782 0.41741 0.63194 0.11200
H 	H 	0.71969 0.61995 0.96469 0.11300
C 	C 	0.49617 0.55281 0.41509 -0.02800
C 	C 	0.49797 0.58205 0.57333 -0.03300
C 	C 	0.52274 0.54051 0.65728 0.11300
C 	C 	0.52419 0.57030 0.82709 -0.21600
C 	C 	0.54602 0.46980 0.58221 -0.01500
C 	C 	0.54318 0.43783 0.42579 -0.00100
C 	C 	0.56573 0.35800 0.34888 0.44900
F 	F 	0.56672 0.34636 0.18870 -0.44400
F 	F 	0.60804 0.35494 0.37805 -0.39500
C 	C 	0.54273 0.29126 0.40618 0.35900
F 	F 	0.49866 0.30466 0.41042 -0.38700
F 	F 	0.55613 0.22183 0.30185 -0.37000
C 	C 	0.51840 0.48028 0.34292 0.05400
H 	H 	0.48059 0.63741 0.63087 0.08100
H 	H 	0.49967 0.61996 0.87567 0.08500
H 	H 	0.55644 0.58957 0.84445 0.19800
H 	H 	0.51766 0.52313 0.89194 0.12200
H 	H 	0.56573 0.43902 0.64703 0.10400
H 	H 	0.51599 0.45655 0.22206 0.10100
C 	C 	0.95660 0.91436 1.08585 -0.01600
C 	C 	0.98184 0.92043 0.20741 -0.03500
C 	C 	1.00240 0.98827 0.25234 0.08900
C 	C 	0.02922 0.99517 0.38258 -0.18500
C 	C 	-0.00261 1.05066 0.17609 -0.04500
C 	C 	0.97204 0.04593 0.05504 0.04400
C 	C 	-0.03492 0.11443 0.97600 0.42700
F 	F 	-0.07384 0.11049 0.91737 -0.34600
F 	F 	0.96165 0.18375 1.08516 -0.41600
C 	C 	0.00118 0.11509 -0.16003 0.38100
F 	F 	0.01752 0.03977 -0.23129 -0.40100
F 	F 	-0.01622 0.14908 0.72943 -0.36500
C 	C 	0.95206 0.97721 1.01038 -0.00400
H 	H 	0.98533 0.87281 0.26777 0.12000
H 	H 	1.02999 0.94184 0.43287 0.12000
H 	H 	1.01558 1.04550 0.47592 0.13800
H 	H 	0.06269 1.00471 0.33910 0.09800
H 	H 	0.01279 0.10330 0.21272 0.10300
H 	H 	0.93288 0.97260 0.91592 0.11700
C 	C 	0.52291 0.07280 0.93494 -0.03900
C 	C 	0.47805 0.08151 0.97581 -0.01500
C 	C 	0.45716 0.02701 1.04673 0.07700
C 	C 	0.40962 0.03785 1.09537 -0.22800
C 	C 	0.48090 -0.03757 0.07494 0.03700
C 	C 	0.52562 0.95072 0.03002 -0.05200
C 	C 	0.55068 0.87936 0.05980 0.46400
F 	F 	0.59449 0.88537 1.02955 -0.39000
F 	F 	0.54173 0.87627 0.21576 -0.38700
C 	C 	0.54034 0.80282 -0.04336 0.36400
F 	F 	0.54391 0.81094 0.80282 -0.38500
F 	F 	0.57035 0.74336 -0.03402 -0.32500
C 	C 	0.54639 0.00707 0.96140 0.07200
H 	H 	0.45938 0.13175 0.95593 0.08900
H 	H 	0.39506 0.09216 1.06856 0.13700
H 	H 	0.40288 0.04138 0.22291 0.16300
H 	H 	0.39466 -0.01245 1.03297 0.14700
H 	H 	0.46430 0.92176 0.13316 0.04900
H 	H 	0.58086 0.00078 0.93052 0.08700
C 	C 	0.00602 0.41428 0.28149 -0.02300
C 	C 	0.98223 0.39109 0.40733 -0.04000
C 	C 	0.94713 0.43923 0.49655 0.08600
C 	C 	0.92166 0.41409 0.63045 -0.20900
C 	C 	0.93547 0.51085 0.45886 -0.02400
C 	C 	0.95913 0.53575 0.33488 -0.04400
C 	C 	-0.05209 0.61580 0.30204 0.46200
F 	F 	-0.03539 0.61844 0.15076 -0.39700
F 	F 	-0.09636 0.63012 0.31464 -0.42100
C 	C 	0.96651 0.68002 0.41415 0.36000
F 	F 	1.01022 0.66172 0.40846 -0.38200
F 	F 	0.96082 0.74998 0.36648 -0.36800
C 	C 	-0.00569 0.48692 0.24638 0.05600
H 	H 	0.99072 0.33529 0.43583 0.08900
H 	H 	0.94166 0.37300 0.67935 0.12000
H 	H 	0.89361 0.38492 0.59000 0.11200
H 	H 	0.91007 0.46530 0.72526 0.09600
H 	H 	0.90821 0.54760 0.52774 0.06400
H 	H 	0.01305 0.50597 0.15170 0.10700
