data_crystal

_cell_length_a 15.72570
_cell_length_b 12.37560
_cell_length_c 9.33810
_cell_angle_alpha 81.43740
_cell_angle_beta  104.66430
_cell_angle_gamma 129.92510

_symmetry_space_group_name_	'P 1'
_symmetry_space_group_name_H-M	'P 1'

loop_
_symmetry_equiv_pos_as_xyz
  x,y,z

loop_
_atom_site_label
_atom_site_type_symbol
_atom_site_fract_x
_atom_site_fract_y
_atom_site_fract_z
_atom_site_charge
Ce	Ce	0.95931 0.05471 0.23190 2.09900
Ce	Ce	0.10539 -0.00051 0.01731 2.04900
C 	C 	0.88288 0.20262 0.12796 0.30000
C 	C 	0.41883 0.31454 0.09597 0.10400
H 	H 	0.59175 0.95958 -0.10391 0.19500
C 	C 	0.04903 0.01910 0.70258 0.05700
C 	C 	0.86909 0.77679 0.08233 0.29900
O 	O 	0.16828 0.86012 0.12467 -0.38600
O 	O 	0.09503 0.81239 0.91710 -0.31000
O 	O 	0.65483 0.95953 -0.10126 -0.25500
O 	O 	0.79754 0.96531 0.03146 -0.25400
O 	O 	0.91509 -0.02946 0.46561 -0.56700
O 	O 	0.09119 0.10385 0.45233 -0.48400
O 	O 	0.08659 0.29566 0.21741 -0.41400
O 	O 	0.07304 0.17437 0.04617 -0.61800
H 	H 	0.42594 0.21135 -0.05519 0.02000
O 	O 	0.88503 0.13023 0.04769 -0.49800
O 	O 	0.93618 0.22062 0.26252 -0.44000
O 	O 	0.37403 0.21815 -0.00601 -0.04500
O 	O 	0.31747 0.19074 0.02895 -0.41700
O 	O 	0.14795 0.07539 0.77668 -0.39000
O 	O 	0.97941 0.95177 0.78804 -0.18700
O 	O 	0.90472 0.80242 -0.03245 -0.40100
O 	O 	0.96457 0.87817 0.17923 -0.58400
C 	C 	0.14178 0.78037 0.02333 0.32400
C 	C 	0.69537 0.92398 0.01961 0.30900
C 	C 	0.01782 0.03117 0.53566 0.32000
C 	C 	0.10614 0.30731 0.09542 0.30700
C 	C 	0.63518 0.87270 0.13938 -0.10100
C 	C 	0.68719 0.92709 0.28879 0.08500
C 	C 	0.61673 0.87461 0.38678 -0.11000
C 	C 	0.66002 0.91883 0.54084 0.52500
O 	O 	0.76160 -0.01003 0.59310 -0.42900
O 	O 	0.58503 0.89161 0.61995 -0.18800
C 	C 	0.49484 0.78268 0.33152 -0.01200
C 	C 	0.45107 0.74221 0.18353 0.05500
C 	C 	0.33564 0.67150 0.11797 -0.12500
C 	C 	0.27388 0.53531 0.06658 0.13600
C 	C 	0.32823 0.46564 0.08421 -0.24100
C 	C 	0.15818 0.45415 0.02342 -0.16400
C 	C 	0.11105 0.53047 0.99844 0.17400
C 	C 	0.00000 0.46631 0.89574 -0.06800
C 	C 	0.17944 0.68219 0.03341 -0.16600
C 	C 	0.29510 0.74787 0.08737 0.16600
C 	C 	0.37847 0.90338 0.10452 -0.27800
C 	C 	0.51888 0.77848 0.08850 -0.05800
H 	H 	0.77586 0.99639 0.31945 0.05400
H 	H 	0.61190 -0.01660 0.65977 0.03000
H 	H 	0.43799 0.74029 0.40301 0.06600
H 	H 	0.38692 0.51484 1.00679 0.10700
H 	H 	0.26978 0.35363 0.04817 0.04400
H 	H 	0.37082 0.47268 0.20327 0.07000
H 	H 	0.96233 0.35889 0.86714 0.05100
H 	H 	1.01415 0.52215 0.78830 0.04300
H 	H 	0.94906 0.47865 0.94296 0.04500
H 	H 	0.46576 0.94979 0.09621 0.13800
H 	H 	0.35363 0.95577 1.01521 0.16700
H 	H 	0.38335 0.92890 0.21734 0.14700
H 	H 	0.47877 0.74112 0.97151 0.07400
C 	C 	0.80745 0.23433 0.06704 -0.17200
C 	C 	0.76201 0.21736 0.91358 0.06600
C 	C 	0.67990 0.23352 0.84922 -0.12000
C 	C 	0.62509 0.19984 0.69124 0.27800
O 	O 	0.67641 0.21480 0.59970 -0.26200
O 	O 	0.51058 0.13778 0.64671 -0.33000
C 	C 	0.65024 0.27675 0.94365 0.01900
C 	C 	0.69820 0.29532 0.09803 -0.03800
C 	C 	0.70350 0.38794 0.18262 -0.08700
C 	C 	0.79068 0.53151 0.16260 0.13900
C 	C 	0.90972 0.58899 0.16289 -0.25100
C 	C 	0.76427 0.61809 0.12275 -0.16000
C 	C 	0.64531 0.55256 0.12358 0.13700
C 	C 	0.62808 0.64359 0.14897 -0.25600
C 	C 	0.55321 0.40270 0.13461 -0.13100
C 	C 	0.59657 0.33391 0.19601 0.11200
C 	C 	0.52338 0.19482 0.26092 -0.25100
C 	C 	0.76825 0.26301 0.16027 -0.01100
H 	H 	0.78985 0.18999 0.84139 0.04000
H 	H 	0.47295 0.08055 0.55025 0.11000
H 	H 	0.59677 0.30475 0.89784 0.04300
H 	H 	0.93075 0.51965 0.21996 0.08700
H 	H 	0.97655 0.68290 0.23308 0.08900
H 	H 	0.92087 0.60430 1.04521 0.10900
H 	H 	0.64365 0.69972 0.04558 0.08900
H 	H 	0.67922 0.69491 0.26342 0.08600
H 	H 	0.54090 0.58370 0.16025 0.08400
H 	H 	0.55758 0.14216 0.28847 0.05200
H 	H 	0.48468 0.19606 0.34753 0.06200
H 	H 	0.45009 0.13593 1.16704 0.06200
H 	H 	0.80337 0.27286 0.27747 0.03500
