data_crystal

_cell_length_a 19.13300
_cell_length_b 35.06700
_cell_length_c 29.50530
_cell_angle_alpha 91.57030
_cell_angle_beta  85.57100
_cell_angle_gamma 86.99040

_symmetry_space_group_name_	'P 1'
_symmetry_space_group_name_H-M	'P 1'

loop_
_symmetry_equiv_pos_as_xyz
  x,y,z

loop_
_atom_site_label
_atom_site_type_symbol
_atom_site_fract_x
_atom_site_fract_y
_atom_site_fract_z
_atom_site_charge
Ce	Ce	0.64822 0.29079 0.48262 2.20200
Ce	Ce	0.80587 0.26544 0.56462 2.17000
C 	C 	0.59090 0.27484 0.40459 0.32300
C 	C 	-0.02281 0.26495 0.53997 0.37900
H 	H 	0.44122 0.33613 0.47043 0.21500
C 	C 	0.85367 0.18948 0.54664 0.31000
C 	C 	0.66325 0.26057 0.57724 0.26400
O 	O 	0.86264 0.27371 0.63013 -0.47500
O 	O 	0.80658 0.22380 0.62465 -0.36500
O 	O 	0.48239 0.32495 0.48319 -0.40400
O 	O 	0.53916 0.27806 0.51584 -0.49000
O 	O 	0.60265 0.34540 0.45499 -0.35300
O 	O 	0.65060 0.34928 0.51898 -0.49300
O 	O 	0.75343 0.29966 0.44381 -0.45100
O 	O 	0.75354 0.25632 0.49526 -0.52500
H 	H 	0.02261 0.30232 0.57714 0.20700
O 	O 	0.62312 0.24902 0.42622 -0.43700
O 	O 	0.59319 0.30892 0.42028 -0.36400
O 	O 	-0.02113 0.29235 0.56903 -0.42700
O 	O 	0.91859 0.25144 0.53087 -0.40400
O 	O 	0.88122 0.21776 0.52841 -0.33900
O 	O 	0.80297 0.19921 0.57541 -0.33900
O 	O 	0.69766 0.27930 0.60179 -0.48000
O 	O 	0.69919 0.24958 0.53558 -0.51200
C 	C 	0.84403 0.24351 0.64871 0.33500
C 	C 	0.48270 0.29279 0.50195 0.40800
C 	C 	0.61699 0.36651 0.48882 0.29900
C 	C 	0.78967 0.27470 0.45956 0.22600
Ce	Ce	0.16510 0.78404 0.47139 2.19600
Ce	Ce	0.32625 0.73840 0.50728 2.18800
C 	C 	0.13230 0.75004 0.39299 0.32200
C 	C 	0.46430 0.78987 0.47469 0.42000
H 	H 	0.95853 0.80682 0.47593 0.22300
C 	C 	0.32404 0.66075 0.49950 0.31200
C 	C 	0.20149 0.74300 0.55922 0.22000
O 	O 	0.38138 0.73889 0.57468 -0.46700
O 	O 	0.42489 0.70084 0.52270 -0.39900
O 	O 	1.00442 0.79586 0.48153 -0.45900
O 	O 	0.07541 0.74945 0.50216 -0.49200
O 	O 	0.12955 0.84394 0.49822 -0.44300
O 	O 	0.22281 0.83796 0.45216 -0.35900
O 	O 	0.26304 0.80450 0.42887 -0.35100
O 	O 	0.26179 0.74380 0.44286 -0.56500
H 	H 	0.53383 0.82675 0.45603 0.20200
O 	O 	0.17380 0.73374 0.41928 -0.39600
O 	O 	0.11097 0.78401 0.40532 -0.44200
O 	O 	0.48462 0.82160 0.46005 -0.36500
O 	O 	0.39816 0.78538 0.47899 -0.49300
O 	O 	0.37497 0.67938 0.48251 -0.37900
O 	O 	0.27432 0.68141 0.52066 -0.34900
O 	O 	0.23582 0.71283 0.54937 -0.35000
O 	O 	0.22748 0.77438 0.53621 -0.64900
C 	C 	0.42892 0.71382 0.56242 0.37500
C 	C 	1.01341 0.76228 0.49627 0.40400
C 	C 	0.17956 0.86036 0.47706 0.28200
C 	C 	0.29183 0.77301 0.41852 0.22100
Ce	Ce	0.21043 0.21281 0.03376 2.21000
Ce	Ce	0.33281 0.27502 0.96718 2.21200
C 	C 	0.17898 0.21960 0.12681 0.39100
C 	C 	0.49528 0.25020 0.95685 0.41800
H 	H 	1.00112 0.20537 0.09111 0.22200
C 	C 	0.37321 0.34122 1.00847 0.37600
C 	C 	0.19710 0.26464 0.94710 0.34500
O 	O 	0.35769 0.23246 0.90630 -0.42900
O 	O 	0.36209 0.29090 0.89279 -0.43700
O 	O 	1.04410 0.21108 0.07379 -0.41800
O 	O 	0.10413 0.24277 0.02194 -0.49100
O 	O 	0.14208 0.16143 0.02287 -0.42700
O 	O 	0.22823 0.16627 -0.02424 -0.44200
O 	O 	0.32246 0.19350 0.05074 -0.46800
O 	O 	0.29945 0.25419 0.04103 -0.61000
H 	H 	0.53700 0.27622 0.90374 0.20600
O 	O 	0.18494 0.24777 0.10174 -0.44500
O 	O 	0.18549 0.18822 0.10494 -0.43200
O 	O 	0.49533 0.27264 0.92362 -0.41800
O 	O 	0.43908 0.24637 0.98185 -0.48200
O 	O 	0.40614 0.32493 0.97446 -0.43500
O 	O 	0.31757 0.32552 1.02000 -0.43600
O 	O 	0.22191 0.29580 0.94915 -0.46500
O 	O 	0.24115 0.23512 0.96051 -0.61900
C 	C 	0.36945 0.25712 0.87677 0.36300
C 	C 	1.04619 0.23645 0.04374 0.43600
C 	C 	0.17561 0.14774 -0.01255 0.35100
C 	C 	0.34427 0.22542 0.05545 0.30300
Ce	Ce	0.66072 0.73105 0.02473 2.21600
Ce	Ce	0.84898 0.77256 0.97625 2.21100
C 	C 	0.59023 0.70135 0.09864 0.34800
C 	C 	-0.00292 0.77061 1.02340 0.40200
H 	H 	0.48700 0.74441 -0.02521 0.22400
C 	C 	0.84795 0.84777 0.95955 0.33900
C 	C 	0.73445 0.74817 0.92885 0.31600
O 	O 	0.91508 0.72240 0.94089 -0.45500
O 	O 	0.92525 0.77727 0.91221 -0.36900
O 	O 	0.53317 0.74982 -0.01660 -0.49800
O 	O 	0.61631 0.78725 -0.00112 -0.49700
O 	O 	0.62986 0.68171 -0.02098 -0.44600
O 	O 	0.68893 0.66772 0.03613 -0.38000
O 	O 	0.71108 0.76715 0.07930 -0.45400
O 	O 	0.78267 0.73685 0.02941 -0.58100
H 	H 	0.07300 0.75101 0.97925 0.20000
O 	O 	0.65282 0.68995 0.08510 -0.37900
O 	O 	0.56464 0.72737 0.07522 -0.44800
O 	O 	0.02370 0.75858 0.98459 -0.42200
O 	O 	0.93126 0.77888 1.02953 -0.48500
O 	O 	0.80316 0.83410 0.98846 -0.45000
O 	O 	0.89400 0.82345 0.94049 -0.39200
O 	O 	0.77205 0.77332 0.91926 -0.43600
O 	O 	0.75385 0.73197 0.96807 -0.57500
C 	C 	0.94231 0.74165 0.90904 0.35400
C 	C 	0.55386 0.78365 -0.01182 0.42000
C 	C 	0.65783 0.65560 0.00210 0.33300
C 	C 	0.77209 0.75743 0.06985 0.31500
C 	C 	0.41922 0.27010 0.50149 -0.14400
O 	O 	0.41100 0.26207 0.45457 -0.14700
C 	C 	0.35214 0.24239 0.44554 0.06700
C 	C 	0.29265 0.26258 0.43155 0.03600
I 	I 	0.28718 0.32296 0.43041 -0.11800
C 	C 	0.23609 0.24280 0.41773 -0.07800
C 	C 	0.23833 0.20275 0.41810 0.06300
C 	C 	0.17455 0.18162 0.40824 -0.09100
C 	C 	0.13638 0.16911 0.45246 -0.08900
C 	C 	0.10960 0.20301 0.48212 0.07000
C 	C 	0.04156 0.21748 0.48741 0.01200
N 	N 	0.04006 0.24645 0.51833 -0.12700
N 	N 	0.10434 0.24975 0.53114 -0.04000
N 	N 	0.14820 0.22363 0.50928 -0.08000
C 	C 	0.29849 0.18264 0.43114 -0.07800
C 	C 	0.35579 0.20229 0.44397 0.03800
I 	I 	0.44812 0.17055 0.45834 -0.08800
H 	H 	0.37297 0.28725 0.51765 0.08100
H 	H 	0.42678 0.24326 0.52007 0.08600
H 	H 	0.18969 0.25866 0.40797 0.06100
H 	H 	0.19065 0.15608 0.38600 0.05600
H 	H 	0.13761 0.19976 0.38958 0.05400
H 	H 	0.17158 0.15029 0.47144 0.05600
H 	H 	0.09136 0.15219 0.44374 0.05100
H 	H 	0.99684 0.20689 0.47158 0.05200
H 	H 	0.30075 0.15169 0.43119 0.06400
C 	C 	0.95225 0.73751 0.50342 -0.14200
O 	O 	0.93178 0.72618 0.45970 -0.14300
C 	C 	0.86566 0.71084 0.45993 0.06500
C 	C 	0.80793 0.73404 0.44843 0.03900
I 	I 	0.81773 0.79244 0.43504 -0.08800
C 	C 	0.74336 0.71833 0.44315 -0.07500
C 	C 	0.73559 0.67920 0.44881 0.06000
C 	C 	0.66641 0.66222 0.44157 -0.08700
C 	C 	0.61414 0.66969 0.48307 -0.09800
C 	C 	0.58609 0.71047 0.48744 0.09100
C 	C 	0.52952 0.72617 0.46686 0.00700
N 	N 	0.51572 0.76121 0.48624 -0.15000
N 	N 	0.56370 0.76728 0.51528 -0.03800
N 	N 	0.60652 0.73653 0.51743 -0.08000
C 	C 	0.79302 0.65595 0.46055 -0.07900
C 	C 	0.85813 0.67148 0.46533 0.03800
I 	I 	0.94499 0.63395 0.47595 -0.08800
H 	H 	0.90850 0.75406 0.52338 0.08200
H 	H 	0.96753 0.71192 0.52240 0.10200
H 	H 	0.69948 0.73654 0.43384 0.07100
H 	H 	0.67449 0.63079 0.43601 0.05300
H 	H 	0.64440 0.67335 0.41041 0.05500
H 	H 	0.63997 0.66186 0.51423 0.07400
H 	H 	0.56943 0.65098 0.48043 0.07500
H 	H 	0.49945 0.71252 0.44214 0.04800
H 	H 	0.78738 0.62566 0.46520 0.06300
C 	C 	0.56051 0.22772 -0.03355 -0.14800
O 	O 	0.59360 0.24656 1.00207 -0.12900
C 	C 	0.65605 0.26349 0.98789 0.06700
C 	C 	0.71481 0.24180 0.96744 0.03700
I 	I 	0.72112 0.18115 0.96491 -0.08500
C 	C 	0.77399 0.26023 0.95093 -0.07200
C 	C 	0.77716 0.29998 -0.04405 0.06200
C 	C 	0.84357 0.31938 -0.05865 -0.08900
C 	C 	0.88149 0.33313 -0.01776 -0.08900
C 	C 	0.91175 0.29994 0.00690 0.07300
C 	C 	0.98179 0.29038 0.01026 0.01800
N 	N 	0.98410 0.25817 0.03385 -0.13600
N 	N 	0.91908 0.24869 0.04494 -0.03400
N 	N 	0.87371 0.27375 0.02887 -0.07600
C 	C 	0.71962 0.32129 -0.02228 -0.07700
C 	C 	0.66038 0.30304 -0.00526 0.04300
I 	I 	0.58046 0.33577 0.03316 -0.08100
H 	H 	0.59472 0.22370 0.93420 0.08100
H 	H 	0.54680 0.19889 -0.02257 0.09600
H 	H 	0.81828 0.24315 0.93573 0.06100
H 	H 	0.83021 0.34397 -0.08001 0.05500
H 	H 	0.88116 0.29986 -0.07971 0.05400
H 	H 	0.84525 0.35119 0.00619 0.06000
H 	H 	0.92469 0.35111 -0.03044 0.05600
H 	H 	1.02681 0.30527 -0.00313 0.05300
H 	H 	0.72147 0.35201 -0.01784 0.06300
C 	C 	0.04229 0.77343 1.06301 -0.13600
O 	O 	0.07422 0.80942 1.06597 -0.13500
C 	C 	0.13044 0.81514 1.03392 0.06400
C 	C 	0.19770 0.79734 1.03712 0.03400
I 	I 	0.22123 0.76254 1.09211 -0.08500
C 	C 	0.25307 0.80511 1.00533 -0.07600
C 	C 	0.24273 0.83124 0.97084 0.05700
C 	C 	0.30064 0.83868 0.93474 -0.08800
C 	C 	0.35034 0.86904 -0.04969 -0.09500
C 	C 	0.41753 0.85378 -0.03194 0.07900
C 	C 	0.44022 0.81626 -0.02768 0.01500
N 	N 	0.50736 0.81638 -0.01752 -0.13000
N 	N 	0.52405 0.85244 -0.01312 -0.01800
N 	N 	0.47064 0.87582 -0.02241 -0.07400
C 	C 	0.17682 0.85052 0.96970 -0.07800
C 	C 	0.12151 0.84286 1.00123 0.04300
I 	I 	1.02613 0.87566 1.00076 -0.07400
H 	H 	0.08173 0.74896 0.06171 0.07100
H 	H 	0.00804 0.77096 0.09475 0.08600
H 	H 	0.30415 0.79115 1.00820 0.06300
H 	H 	0.27585 0.84974 0.90436 0.05500
H 	H 	0.32881 0.81151 0.92206 0.05700
H 	H 	0.32260 0.88902 -0.02375 0.06600
H 	H 	0.36568 0.88612 -0.07961 0.06400
H 	H 	0.41179 0.79103 0.96743 0.03000
H 	H 	0.16883 0.87196 0.94452 0.06400
C 	C 	0.18644 0.90250 0.48105 -0.08400
O 	O 	0.18592 0.91399 0.52811 -0.14400
C 	C 	0.14796 0.94869 0.53946 0.07200
C 	C 	0.07881 -0.05118 0.55946 0.03700
I 	I 	1.03143 0.89747 0.57674 -0.06800
C 	C 	0.03941 -0.01661 0.56793 -0.07700
C 	C 	0.06859 0.01824 0.55718 0.05700
C 	C 	0.02451 0.05528 0.56365 -0.09100
C 	C 	0.01075 0.07222 0.51755 -0.09200
C 	C 	-0.05119 0.10040 0.52192 0.07400
C 	C 	0.94573 0.13695 0.54061 0.01000
N 	N 	0.87976 0.15101 0.53702 -0.10800
N 	N 	0.84468 0.12495 0.51681 -0.02700
N 	N 	0.88546 0.09355 0.50736 -0.07700
C 	C 	0.13880 0.01810 0.53949 -0.07700
C 	C 	0.17857 -0.01634 0.53091 0.03200
I 	I 	0.28490 0.98579 0.50579 -0.08100
H 	H 	0.14250 0.91684 0.46415 0.07400
H 	H 	0.23674 0.90983 0.46292 0.08700
H 	H 	-0.01451 -0.01705 0.58199 0.06600
H 	H 	0.05166 0.07603 0.58438 0.05500
H 	H 	-0.02655 0.05006 0.58262 0.06200
H 	H 	-0.00065 0.04890 0.49342 0.06500
H 	H 	0.05796 0.08623 0.50307 0.05000
H 	H 	0.98688 0.15182 0.55536 0.04200
H 	H 	0.16235 0.04478 0.53178 0.06000
C 	C 	0.15200 0.11472 0.96070 -0.11000
O 	O 	0.08795 0.12660 0.94187 -0.14900
C 	C 	0.04165 0.09765 0.93549 0.06700
C 	C 	0.98915 0.09077 0.96970 0.03500
I 	I 	0.98083 0.12172 0.03259 -0.05600
C 	C 	0.93986 0.06374 0.96223 -0.07700
C 	C 	0.94089 0.04380 0.92030 0.05700
C 	C 	0.88669 1.01478 0.91301 -0.09000
C 	C 	0.92074 0.97404 0.90589 -0.08900
C 	C 	0.87624 0.94297 0.92441 0.07600
C 	C 	0.89752 0.90486 0.92461 0.01800
N 	N 	0.84706 0.88749 0.94899 -0.10900
N 	N 	0.79693 0.91349 0.96305 -0.01900
N 	N 	0.81330 0.94769 0.94858 -0.07500
C 	C 	0.99267 0.05128 0.88573 -0.07900
C 	C 	0.04315 0.07785 0.89338 0.03200
I 	I 	0.12008 0.08857 0.84054 -0.09300
H 	H 	0.14533 0.09016 -0.01653 0.08000
H 	H 	0.19246 0.10635 0.93264 0.08900
H 	H 	0.90031 0.05860 0.98921 0.06900
H 	H 	0.85799 1.02252 0.88303 0.06100
H 	H 	0.84710 1.01612 0.94262 0.06900
H 	H 	0.97035 0.97181 0.92295 0.06100
H 	H 	0.93421 0.96811 0.86906 0.05700
H 	H 	0.94633 0.89119 0.91033 0.05700
H 	H 	0.99401 0.03657 0.85293 0.06300
C 	C 	0.59324 0.40797 0.49241 -0.08800
O 	O 	0.54059 0.41413 0.46112 -0.13100
C 	C 	0.47909 0.43684 0.47371 0.06500
C 	C 	0.45877 0.46361 0.44197 0.04500
I 	I 	0.52569 0.47398 0.38363 -0.08100
C 	C 	0.39317 0.48315 0.44729 -0.07700
C 	C 	0.34581 0.47608 0.48415 0.06600
C 	C 	0.27315 0.49542 0.48813 -0.08900
C 	C 	0.26503 0.52657 0.52582 -0.09100
C 	C 	0.30259 0.56141 0.51219 0.07700
C 	C 	0.27381 0.59821 0.51286 0.01400
N 	N 	0.32648 0.62002 0.49926 -0.10500
N 	N 	0.38463 0.59803 0.49112 -0.02400
N 	N 	0.37157 0.56190 0.49878 -0.07800
C 	C 	0.36590 0.45017 0.51671 -0.07800
C 	C 	0.43160 0.43015 0.51181 0.03800
I 	I 	0.44790 0.38905 0.56204 -0.09200
H 	H 	0.63867 0.42493 0.48180 0.07300
H 	H 	0.57544 0.41733 0.52776 0.07700
H 	H 	0.37895 0.50380 0.42249 0.07000
H 	H 	0.23413 0.47362 0.49573 0.05400
H 	H 	0.26031 0.50802 0.45534 0.05800
H 	H 	0.28525 0.51560 0.55753 0.06000
H 	H 	0.20819 0.53460 0.53305 0.05400
H 	H 	0.22029 0.60817 0.52311 0.05600
H 	H 	0.32925 0.44470 0.54538 0.06400
C 	C 	0.40113 0.37333 0.03430 -0.12500
O 	O 	0.35141 0.40525 0.04000 -0.13000
C 	C 	0.38482 0.43949 0.04520 0.06600
C 	C 	0.40423 0.46002 0.00650 0.03700
I 	I 	0.37265 0.44360 0.94200 -0.07300
C 	C 	0.44780 0.49051 0.00984 -0.07900
C 	C 	0.47261 0.50095 0.05174 0.05800
C 	C 	0.52058 0.53361 0.05432 -0.09000
C 	C 	0.59330 0.52362 0.02903 -0.09200
C 	C 	0.62022 0.55765 0.00505 0.07200
C 	C 	0.64767 0.58894 0.02503 0.01200
N 	N 	0.64889 0.61602 -0.00641 -0.11400
N 	N 	0.62370 0.60204 -0.04361 -0.02800
N 	N 	0.60582 0.56649 -0.03761 -0.08000
C 	C 	0.45072 0.48144 0.09082 -0.07800
C 	C 	0.40700 0.45083 0.08769 0.03800
I 	I 	0.37803 0.42168 0.14753 -0.08700
H 	H 	0.45069 0.38124 1.01545 0.09300
H 	H 	0.41379 0.36310 0.06810 0.09600
H 	H 	0.46397 0.50548 -0.02050 0.06800
H 	H 	0.52788 0.54164 0.09035 0.05100
H 	H 	0.49407 0.55894 0.03959 0.06200
H 	H 	0.59070 0.50014 0.00325 0.06200
H 	H 	0.63096 0.51358 0.05361 0.05300
H 	H 	0.65946 0.59291 0.06018 0.04800
H 	H 	0.46889 0.48942 0.12347 0.06200
C 	C 	0.86319 0.26528 0.43921 -0.09400
O 	O 	0.87165 0.28332 0.39633 -0.13200
C 	C 	0.94037 0.28316 0.37586 0.06200
C 	C 	0.95726 0.26213 0.33485 0.04000
I 	I 	0.88474 0.22568 0.30845 -0.06300
C 	C 	0.02175 0.26587 0.30989 -0.07900
C 	C 	0.07052 0.29068 0.32549 0.06100
C 	C 	0.13729 0.29769 0.29683 -0.09300
C 	C 	0.18674 0.26175 0.28897 -0.09000
C 	C 	0.17389 0.23963 0.24639 0.07000
C 	C 	0.17988 0.25237 0.20249 0.01300
N 	N 	0.16917 0.22206 0.17536 -0.12100
N 	N 	0.15765 0.19255 0.20122 -0.02200
N 	N 	0.15991 0.20236 0.24476 -0.08000
C 	C 	0.05392 0.31153 0.36652 -0.08300
C 	C 	-0.01087 0.30846 0.39127 0.04300
I 	I 	-0.03559 0.34760 0.44691 -0.12200
H 	H 	0.87217 0.23383 0.43410 0.08100
H 	H 	0.90046 0.27652 0.46191 0.05200
H 	H 	0.03233 0.25068 0.27737 0.07300
H 	H 	0.16644 0.31992 0.31379 0.05200
H 	H 	0.12357 0.30975 0.26404 0.05700
H 	H 	0.18185 0.24309 0.31873 0.05600
H 	H 	0.24177 0.27053 0.28565 0.04800
H 	H 	0.19343 0.28023 0.19139 0.04800
H 	H 	0.09046 0.33134 0.37865 0.06600
C 	C 	0.10632 0.73032 0.35275 -0.09800
O 	O 	0.15459 0.73307 0.31368 -0.13700
C 	C 	0.12392 0.72447 0.27329 0.06900
C 	C 	0.09129 0.75398 0.24988 0.03800
I 	I 	0.09399 0.81168 0.27228 -0.05700
C 	C 	0.05367 0.74535 0.21246 -0.07500
C 	C 	0.04715 0.70721 0.19854 0.05800
C 	C 	0.99851 0.69786 0.16246 -0.08700
C 	C 	0.92157 0.70903 0.17899 -0.09700
C 	C 	0.88893 0.73906 0.15093 0.07600
C 	C 	0.87107 0.73337 0.10695 0.00300
N 	N 	0.82160 0.76091 0.10028 -0.13400
N 	N 	0.81152 0.78294 0.13758 -0.02000
N 	N 	0.85229 0.77050 0.16895 -0.07600
C 	C 	0.08305 0.67793 0.22034 -0.07700
C 	C 	0.12174 0.68643 0.25730 0.03700
I 	I 	0.17415 0.64090 0.28852 -0.08000
H 	H 	0.05415 0.74424 0.34693 0.08300
H 	H 	0.09855 0.69990 0.36037 0.08600
H 	H 	0.02720 0.76824 0.19530 0.07100
H 	H 	1.00272 0.66665 0.15404 0.05100
H 	H 	1.01518 0.71221 0.13066 0.05000
H 	H 	0.91626 0.71896 0.21523 0.06600
H 	H 	0.88992 0.68340 0.17717 0.05700
H 	H 	0.88351 0.70808 0.08527 0.03600
H 	H 	1.07956 0.64840 0.20938 0.06200
C 	C 	0.86600 0.23181 0.69382 -0.10600
O 	O 	0.80610 0.22301 0.72301 -0.13300
C 	C 	0.82411 0.21623 0.76721 0.06900
C 	C 	0.82180 0.24681 0.79892 0.03700
I 	I 	0.77467 0.30075 0.78506 -0.08700
C 	C 	0.85498 0.24259 0.83901 -0.07900
C 	C 	0.88920 0.20770 0.84856 0.05700
C 	C 	-0.06394 0.20528 0.88734 -0.08600
C 	C 	0.01389 0.20308 0.86931 -0.09600
C 	C 	0.05449 0.23204 0.89287 0.08400
C 	C 	0.11178 0.22458 0.91712 0.00900
N 	N 	0.13541 0.25864 0.92826 -0.12600
N 	N 	0.09469 0.28577 0.91171 -0.02600
N 	N 	0.04447 0.27025 0.88997 -0.08400
C 	C 	0.88440 0.17597 0.81920 -0.07700
C 	C 	0.85180 0.18012 0.77860 0.03700
I 	I 	0.84877 0.13220 0.73383 -0.07700
H 	H 	0.89377 0.25561 0.70892 0.08100
H 	H 	0.90346 0.20647 0.68877 0.08000
H 	H 	0.85759 0.26729 0.86097 0.05900
H 	H 	0.92441 0.17988 0.90786 0.06100
H 	H 	0.92532 0.23062 0.91060 0.05800
H 	H 	0.02040 0.20807 0.83215 0.06600
H 	H 	0.03705 0.17394 0.87446 0.06900
H 	H 	0.13635 0.19700 0.92318 0.05600
H 	H 	0.90937 0.14866 0.82662 0.06500
C 	C 	0.40715 0.23306 0.08081 -0.11000
O 	O 	0.40928 0.27341 0.09030 -0.14400
C 	C 	0.40704 0.28390 0.13671 0.07000
C 	C 	0.46327 0.27352 0.16293 0.03500
I 	I 	0.55864 0.24688 0.13319 -0.06300
C 	C 	0.45789 0.28188 0.20977 -0.07600
C 	C 	0.39727 0.30100 0.23092 0.06000
C 	C 	0.39068 0.30970 0.28140 -0.09100
C 	C 	0.38965 0.27318 0.30916 -0.09500
C 	C 	0.45916 0.26381 0.32752 0.07900
C 	C 	0.49268 0.28656 0.35679 0.01500
N 	N 	0.54878 0.26526 0.36825 -0.10600
N 	N 	0.54921 0.23154 0.34780 -0.01900
N 	N 	0.49512 0.22967 0.32224 -0.07600
C 	C 	0.34331 0.31311 0.20439 -0.07900
C 	C 	0.34839 0.30538 0.15761 0.03800
I 	I 	0.26493 0.32740 0.12160 -0.04900
H 	H 	0.45581 0.22238 0.06067 0.09600
H 	H 	0.40296 0.21654 0.11254 0.08300
H 	H 	0.50095 0.27337 0.22965 0.07300
H 	H 	0.34117 0.32704 0.29108 0.05200
H 	H 	0.43392 0.32788 0.29001 0.06100
H 	H 	0.37362 0.24845 0.28876 0.06300
H 	H 	0.34981 0.27757 0.33849 0.05900
H 	H 	0.47518 0.31451 0.37080 0.05800
H 	H 	0.29699 0.32877 0.22006 0.06000
C 	C 	0.67587 0.73809 0.90031 -0.12100
O 	O 	0.65633 0.77052 0.87449 -0.12800
C 	C 	0.64529 0.76369 0.82858 0.06600
C 	C 	0.57649 0.76733 0.81500 0.04600
I 	I 	0.48870 0.77272 0.86284 -0.10000
C 	C 	0.56449 0.76697 0.76899 -0.08200
C 	C 	0.62065 0.76225 0.73572 0.06200
C 	C 	0.60705 0.75964 0.68633 -0.09300
C 	C 	0.61960 0.71801 0.66793 -0.09200
C 	C 	0.57027 0.70615 0.63359 0.07600
C 	C 	0.50815 0.72440 0.62273 0.01900
N 	N 	0.48485 0.70303 0.58940 -0.12000
N 	N 	0.52937 0.67317 0.58023 -0.02800
N 	N 	0.58177 0.67416 0.60700 -0.08100
C 	C 	0.68922 0.75836 0.74891 -0.08000
C 	C 	0.70201 0.75933 0.79497 0.04000
I 	I 	0.80819 0.75527 0.81056 -0.06100
H 	H 	0.62990 0.73169 0.92296 0.06100
H 	H 	0.69216 0.71231 0.87851 0.08200
H 	H 	0.51117 0.76987 0.75926 0.06500
H 	H 	0.64212 0.77848 0.66651 0.05900
H 	H 	0.55307 0.77134 0.68271 0.05500
H 	H 	0.61537 0.69751 0.69592 0.06200
H 	H 	0.67425 0.71441 0.65205 0.06200
H 	H 	0.48320 0.75136 0.63562 0.04400
H 	H 	0.73268 0.75474 0.72319 0.06600
C 	C 	0.35017 0.76654 0.38183 -0.07000
O 	O 	0.39939 0.73785 0.39525 -0.19400
C 	C 	0.42967 0.71344 0.35989 0.07900
C 	C 	0.49525 0.72101 0.33813 0.03000
I 	I 	0.54676 0.77091 0.35411 -0.08200
C 	C 	0.52950 0.69449 0.30655 -0.07400
C 	C 	0.49957 0.65981 0.29700 0.06000
C 	C 	0.53989 0.62917 0.26741 -0.08900
C 	C 	0.50409 0.61978 0.22418 -0.09400
C 	C 	0.51069 0.65057 0.19056 0.07600
C 	C 	0.57071 0.65883 0.16445 0.01000
N 	N 	0.54978 0.68512 0.13529 -0.11600
N 	N 	0.48147 0.69280 0.14371 -0.02300
N 	N 	0.45598 0.67200 0.17725 -0.07700
C 	C 	0.43390 0.65250 0.31832 -0.07300
C 	C 	0.39903 0.67901 0.34945 0.03400
I 	I 	0.30260 0.66401 0.38149 -0.05800
H 	H 	0.37687 0.79357 0.37634 0.09000
H 	H 	0.32685 0.75802 0.34983 0.08100
H 	H 	0.58044 0.70042 0.29053 0.06400
H 	H 	0.54403 0.60292 0.28747 0.05300
H 	H 	0.59432 0.63730 0.25813 0.05200
H 	H 	0.44786 0.61475 0.23240 0.06300
H 	H 	0.52918 0.59305 0.20800 0.05200
H 	H 	0.62351 0.64621 0.16594 0.04400
H 	H 	0.41073 0.62556 0.31185 0.06500
C 	C 	0.39144 0.24750 0.82801 -0.11500
O 	O 	0.39913 0.20697 0.82103 -0.12800
C 	C 	0.41416 0.19556 0.77535 0.06500
C 	C 	0.48405 0.18783 0.75779 0.04300
I 	I 	0.56883 0.19384 0.79906 -0.07500
C 	C 	0.49863 0.17581 0.71224 -0.07400
C 	C 	0.44390 0.17148 0.68374 0.06600
C 	C 	0.45955 0.15827 0.63467 -0.08800
C 	C 	0.44788 0.19057 0.60157 -0.09500
C 	C 	0.50288 0.21929 0.60400 0.08200
C 	C 	0.56306 0.22095 0.57531 0.00500
N 	N 	0.59778 0.25023 0.59172 -0.12200
N 	N 	0.56151 0.26476 0.62871 -0.02200
N 	N 	0.50309 0.24669 0.63697 -0.07700
C 	C 	0.37417 0.17851 0.70167 -0.07800
C 	C 	0.35915 0.18998 0.74733 0.04000
I 	I 	0.25278 0.19747 0.77337 -0.08000
H 	H 	0.44229 0.26042 0.81879 0.08700
H 	H 	0.35082 0.25998 0.80698 0.08500
H 	H 	0.55270 0.17015 0.69900 0.07400
H 	H 	0.42495 0.13481 0.62702 0.05600
H 	H 	0.51454 0.14612 0.62872 0.06100
H 	H 	0.39484 0.20499 0.60859 0.06000
H 	H 	0.45069 0.17787 0.56653 0.05900
H 	H 	0.58081 0.20227 0.54640 0.04500
H 	H 	0.33148 0.17467 0.68021 0.06400
C 	C 	0.13931 0.74508 0.59365 -0.07300
O 	O 	0.10961 0.70843 0.59581 -0.13700
C 	C 	0.09558 0.69440 0.63952 0.06700
C 	C 	0.02636 0.69714 0.65966 0.04300
I 	I 	-0.05449 0.72791 0.62938 -0.09900
C 	C 	0.00882 0.67823 0.69976 -0.07700
C 	C 	0.05987 0.65632 0.72053 0.06600
C 	C 	0.04022 0.63353 0.76180 -0.09000
C 	C 	0.07655 0.64601 0.80402 -0.08900
C 	C 	0.04385 0.68277 0.82526 0.07400
C 	C 	0.00743 0.68716 0.86733 0.01200
N 	N 	0.98706 0.72442 0.87226 -0.11400
N 	N 	1.01032 0.74201 0.83543 -0.02200
N 	N 	0.04552 0.71728 0.80611 -0.07600
C 	C 	0.12893 0.65400 0.70094 -0.08000
C 	C 	0.14714 0.67282 0.66099 0.04100
I 	I 	0.25264 0.66444 0.63486 -0.06500
H 	H 	0.09922 0.76630 0.58304 0.05800
H 	H 	0.15610 0.75520 0.62701 0.06900
H 	H 	-0.04502 0.68002 0.71415 0.06800
H 	H 	0.05563 0.60304 0.75350 0.05300
H 	H 	-0.01757 0.63503 0.76980 0.05700
H 	H 	0.13350 0.64908 0.79557 0.05800
H 	H 	0.07170 0.62300 0.82923 0.05100
H 	H 	-0.00412 0.66544 0.89178 0.04700
H 	H 	0.16859 0.63667 0.71623 0.06300
