data_crystal

_cell_length_a 18.98010
_cell_length_b 16.98740
_cell_length_c 22.14560
_cell_angle_alpha 103.68640
_cell_angle_beta  75.35790
_cell_angle_gamma 111.75090

_symmetry_space_group_name_	'P 1'
_symmetry_space_group_name_H-M	'P 1'

loop_
_symmetry_equiv_pos_as_xyz
  x,y,z

loop_
_atom_site_label
_atom_site_type_symbol
_atom_site_fract_x
_atom_site_fract_y
_atom_site_fract_z
_atom_site_charge
Eu	Eu	0.54659 0.61149 0.89030 1.95500
O 	O 	0.43139 0.66008 1.00318 -0.22400
C 	C 	0.61112 0.49081 0.92841 0.23700
O 	O 	0.67401 0.74954 0.82046 -0.17300
O 	O 	0.54375 0.70761 0.83531 -0.33500
O 	O 	0.66535 0.57344 0.77384 -0.15500
O 	O 	0.66726 0.53217 0.89434 -0.17200
O 	O 	0.54434 0.51317 0.94591 -0.34200
O 	O 	0.41537 0.56495 0.91298 -0.34900
C 	C 	0.38734 0.60231 0.97254 0.27300
O 	O 	0.53609 0.51033 0.80164 -0.31300
C 	C 	0.60609 0.51867 0.75980 0.26900
C 	C 	0.61731 0.75376 0.80663 0.26100
Eu	Eu	-0.07433 0.52091 0.19553 1.78900
O 	O 	0.78858 0.44315 0.29372 -0.21600
C 	C 	0.01738 0.55045 0.30161 0.26400
O 	O 	0.86720 0.62242 0.13856 -0.21400
O 	O 	0.81994 0.48283 0.15058 -0.33400
O 	O 	0.02756 0.58627 0.07356 -0.20000
O 	O 	-0.04649 0.50626 0.32425 -0.24400
O 	O 	0.03367 0.56257 0.23896 -0.37500
O 	O 	0.87852 0.39031 0.22807 -0.30400
C 	C 	0.81006 0.38130 0.27157 0.27300
O 	O 	-0.01528 0.45663 0.10542 -0.32400
C 	C 	0.02206 0.51049 0.06011 0.23100
C 	C 	0.81855 0.55235 0.12862 0.26600
Eu	Eu	0.49501 -0.03680 0.46135 1.84600
O 	O 	0.52655 0.05117 0.34944 -0.20400
C 	C 	0.38068 0.81735 0.38901 0.25200
O 	O 	0.51992 0.07689 0.58493 -0.24500
O 	O 	0.57065 0.10197 0.48488 -0.38100
O 	O 	0.46474 0.87361 0.57239 -0.19800
O 	O 	0.40048 0.87755 0.36034 -0.16000
O 	O 	0.41771 0.82476 0.43793 -0.31600
O 	O 	0.57265 -0.04626 0.36494 -0.32700
C 	C 	0.57087 0.01002 0.32916 0.24100
O 	O 	0.57212 0.91905 0.50001 -0.32900
C 	C 	0.53294 0.88228 0.55385 0.27000
C 	C 	0.56203 0.12774 0.54984 0.26400
C 	C 	0.30458 0.57100 0.99775 0.14900
N 	N 	0.27087 0.60412 1.05400 -0.02700
N 	N 	0.19692 0.55856 1.05978 -0.04000
C 	C 	0.18937 0.50045 0.00662 0.16200
C 	C 	0.11425 0.43356 -0.00630 0.41600
F 	F 	0.12758 0.38533 -0.06532 -0.31100
F 	F 	0.08752 0.37885 0.03814 -0.35500
C 	C 	0.05305 0.47344 -0.00578 0.38400
F 	F 	-0.00832 0.40991 -0.03007 -0.32200
F 	F 	0.08434 0.53619 0.95557 -0.34000
O 	O 	0.25547 0.50670 0.96711 -0.11500
C 	C 	0.76393 0.29725 0.29021 0.15000
N 	N 	0.70396 0.28537 0.33894 -0.03100
N 	N 	0.67663 0.20217 0.34007 -0.04100
C 	C 	0.72088 0.16750 0.29163 0.16700
C 	C 	0.70826 0.07274 0.27399 0.41500
F 	F 	0.75681 0.05882 0.21720 -0.31100
F 	F 	0.72820 0.04598 0.31980 -0.36400
C 	C 	0.62407 0.02012 0.26611 0.38600
F 	F 	0.62088 -0.06092 0.23312 -0.32500
F 	F 	0.59899 0.05946 0.23141 -0.34500
O 	O 	0.77604 0.22529 0.25988 -0.11300
C 	C 	0.75796 0.54107 0.09434 0.15500
N 	N 	0.74937 0.60574 1.07507 -0.02600
N 	N 	0.68929 0.57067 1.04669 -0.04200
C 	C 	0.66443 0.48639 0.05007 0.16600
C 	C 	0.59718 0.42157 1.02240 0.41700
F 	F 	0.58432 0.34252 1.03800 -0.30600
F 	F 	0.53194 0.44442 0.04892 -0.35300
C 	C 	0.61207 0.41327 0.94973 0.39100
F 	F 	0.55473 0.34250 0.92646 -0.30000
F 	F 	0.68216 0.39997 0.92455 -0.31800
O 	O 	0.70603 0.46603 0.07956 -0.11500
C 	C 	0.07685 0.59292 0.34073 0.13700
N 	N 	0.07350 0.57005 0.39579 -0.03400
N 	N 	0.13419 0.62565 0.41850 -0.01400
C 	C 	0.17124 0.67974 0.37622 0.18800
C 	C 	0.23930 0.75878 0.38717 0.40800
F 	F 	0.24592 0.81523 0.34837 -0.34600
F 	F 	0.22599 0.79771 0.44946 -0.36900
C 	C 	0.31452 0.73762 0.37320 0.38900
F 	F 	0.33060 0.70486 0.30973 -0.33700
F 	F 	0.30661 0.67652 0.40858 -0.34500
O 	O 	0.13680 0.66106 0.32732 -0.13600
C 	C 	0.57386 0.85508 0.58856 0.15700
N 	N 	0.65086 0.87371 0.57615 -0.01900
N 	N 	0.66635 0.83984 0.61676 0.00000
C 	C 	0.59792 0.80203 0.65180 0.19600
C 	C 	0.58873 0.75046 0.70146 0.41300
F 	F 	0.51073 0.71039 0.72198 -0.34200
F 	F 	0.62261 0.68772 0.67438 -0.33600
C 	C 	0.62643 0.80725 0.75793 0.38900
F 	F 	0.59209 0.86929 0.78585 -0.32700
F 	F 	0.70425 0.84790 0.73685 -0.31900
O 	O 	0.53917 0.81049 0.63538 -0.12100
C 	C 	0.60220 0.21617 0.57617 0.14300
N 	N 	0.65097 0.27531 0.54057 -0.03100
N 	N 	0.67393 0.34662 0.58032 -0.00900
C 	C 	0.63749 0.32736 0.63820 0.19300
C 	C 	0.64390 0.39188 0.69768 0.41100
F 	F 	0.60535 0.34965 0.74911 -0.33400
F 	F 	0.72099 0.43089 0.70258 -0.32500
C 	C 	0.60812 0.45964 0.69739 0.38900
F 	F 	0.53318 0.41913 0.68642 -0.33900
F 	F 	0.65054 0.50773 0.64971 -0.32000
O 	O 	0.59265 0.24649 0.63714 -0.12500
