data_crystal

_cell_length_a 41.47490
_cell_length_b 20.05790
_cell_length_c 12.75080
_cell_angle_alpha 91.66540
_cell_angle_beta  92.74140
_cell_angle_gamma 87.57270

_symmetry_space_group_name_	'P 1'
_symmetry_space_group_name_H-M	'P 1'

loop_
_symmetry_equiv_pos_as_xyz
  x,y,z

loop_
_atom_site_label
_atom_site_type_symbol
_atom_site_fract_x
_atom_site_fract_y
_atom_site_fract_z
_atom_site_charge
Eu	Eu	0.38410 0.76098 0.22883 1.82000
O 	O 	0.32069 0.79418 0.40664 -0.21300
C 	C 	0.33978 0.64062 0.18609 0.36100
O 	O 	0.40042 0.84821 0.04912 -0.32200
O 	O 	0.42634 0.82702 0.20495 -0.42900
O 	O 	0.42561 0.63673 0.21267 -0.27200
O 	O 	0.36057 0.62920 0.12292 -0.27300
O 	O 	0.34142 0.69599 0.25405 -0.41200
O 	O 	0.36744 0.83396 0.35832 -0.40100
C 	C 	0.33381 0.83730 0.36036 0.24200
O 	O 	0.41495 0.70408 0.35174 -0.39100
C 	C 	0.43067 0.64886 0.30599 0.35300
C 	C 	0.42085 0.86518 0.11568 0.26700
Eu	Eu	0.88276 0.73538 0.75206 1.87400
O 	O 	0.84323 0.85200 0.80690 -0.27800
C 	C 	0.82351 0.65812 0.79881 0.35300
O 	O 	0.90286 0.81891 0.94327 -0.28100
O 	O 	0.91984 0.81536 0.77834 -0.41800
O 	O 	0.91474 0.59369 0.69649 -0.25100
O 	O 	0.82423 0.70388 0.86372 -0.28700
O 	O 	0.84629 0.65422 0.72219 -0.39800
O 	O 	0.85180 0.80560 0.64755 -0.38600
C 	C 	0.83688 0.85312 0.71272 0.35800
O 	O 	0.91360 0.69360 0.62075 -0.40400
C 	C 	0.93014 0.63604 0.65654 0.23500
C 	C 	0.92174 0.83861 0.88190 0.35300
Eu	Eu	0.11111 0.26877 0.21492 1.88800
O 	O 	0.15997 0.17981 0.14071 -0.31900
C 	C 	0.15264 0.38759 0.18735 0.27200
O 	O 	0.04061 0.23976 0.13628 -0.26300
O 	O 	0.08607 0.17487 0.15723 -0.42600
O 	O 	0.05861 0.36458 0.23972 -0.31300
O 	O 	0.14842 0.36251 0.09956 -0.32600
O 	O 	0.13770 0.36068 0.27099 -0.42400
O 	O 	0.14779 0.20344 0.30730 -0.40000
C 	C 	0.16593 0.16873 0.23322 0.35100
O 	O 	0.07789 0.28586 0.35096 -0.39800
C 	C 	0.05791 0.34121 0.32666 0.36200
C 	C 	0.05554 0.18858 0.11067 0.25500
Eu	Eu	0.61125 0.24662 0.72992 1.83000
O 	O 	0.64473 0.11713 0.75418 -0.29500
C 	C 	0.65672 0.34877 0.81935 0.26400
O 	O 	0.57204 0.21393 0.90128 -0.32800
O 	O 	0.57849 0.15966 0.74674 -0.41100
O 	O 	0.58640 0.39389 0.62111 -0.25100
O 	O 	0.65299 0.30939 0.88870 -0.33700
O 	O 	0.64362 0.33461 0.71901 -0.43200
O 	O 	0.64256 0.18565 0.61730 -0.42200
C 	C 	0.65397 0.12780 0.66698 0.26800
O 	O 	0.57748 0.28453 0.59685 -0.41500
C 	C 	0.56689 0.34993 0.61999 0.23900
C 	C 	0.56546 0.16577 0.84505 0.34900
C 	C 	0.31236 0.59652 0.19112 -0.14000
C 	C 	0.31717 0.53114 0.22621 0.17400
Cl	Cl	0.35699 0.49888 0.25389 -0.23500
C 	C 	0.29053 0.49200 0.24234 0.09300
Cl	Cl	0.29902 0.40903 0.28303 -0.26400
C 	C 	0.25818 0.51872 0.22671 -0.02000
C 	C 	0.22969 0.47685 0.25797 -0.03000
C 	C 	0.20614 0.51040 0.33408 -0.07300
C 	C 	0.17610 0.46954 0.32124 -0.05600
C 	C 	0.17264 0.44939 0.20352 -0.04200
C 	C 	0.15290 0.50594 0.14603 -0.15800
C 	C 	0.20907 0.43892 0.16965 0.11100
C 	C 	0.22037 0.36381 0.17085 -0.22100
C 	C 	0.21430 0.46212 0.05698 -0.22000
C 	C 	0.25400 0.58434 0.18607 0.09300
Cl	Cl	0.21588 0.62406 0.15866 -0.29600
C 	C 	0.28096 0.62172 0.16693 0.17300
Cl	Cl	0.27552 0.70059 0.10831 -0.29900
H 	H 	0.24057 0.43791 0.31006 0.07400
H 	H 	0.19958 0.56288 0.31738 0.08700
H 	H 	0.21611 0.50917 0.41672 0.06900
H 	H 	0.18035 0.42442 0.36972 0.06900
H 	H 	0.15452 0.49792 0.35014 0.06800
H 	H 	0.16371 0.55483 0.15964 0.10200
H 	H 	0.15038 0.49520 0.06015 0.08600
H 	H 	0.12806 0.51092 0.17546 0.08100
H 	H 	0.21554 0.34148 0.24705 0.10000
H 	H 	0.20814 0.33428 0.10690 0.11100
H 	H 	0.24668 0.35808 0.15889 0.12400
H 	H 	0.20723 0.51504 0.04558 0.11700
H 	H 	0.24006 0.45476 0.03754 0.10600
H 	H 	0.19966 0.43256 -0.00127 0.10100
C 	C 	0.81316 0.90392 0.67062 -0.12900
C 	C 	0.81686 0.97168 0.69710 0.17100
Cl	Cl	0.85185 0.99685 0.77043 -0.21800
C 	C 	0.79296 0.01992 0.66646 0.08900
Cl	Cl	0.80087 0.10444 0.69986 -0.26200
C 	C 	0.76365 1.00098 0.61249 -0.01600
C 	C 	0.73596 0.05495 0.59682 -0.03000
C 	C 	0.71906 0.06189 0.48805 -0.07500
C 	C 	0.68804 0.10240 0.50943 -0.05400
C 	C 	0.67641 0.07664 0.61352 -0.03900
C 	C 	0.65567 0.01519 0.58706 -0.16100
C 	C 	0.70908 0.05998 0.68026 0.10400
C 	C 	0.71760 0.11742 0.76075 -0.21000
C 	C 	0.70758 0.99610 0.74519 -0.21600
C 	C 	0.76071 0.93195 0.58340 0.09600
Cl	Cl	0.72618 0.90052 0.51570 -0.27500
C 	C 	0.78556 0.88450 0.61127 0.16900
Cl	Cl	0.78092 0.79886 0.57820 -0.23000
H 	H 	0.74771 0.10351 0.60140 0.07300
H 	H 	0.71267 0.01450 0.44883 0.08900
H 	H 	0.73405 0.08834 0.43370 0.06900
H 	H 	0.69406 0.15590 0.51871 0.05600
H 	H 	0.66988 0.09750 0.44285 0.05900
H 	H 	0.66924 -0.02454 0.54377 0.10000
H 	H 	0.64676 -0.00602 0.65927 0.10600
H 	H 	0.63401 0.02999 0.53690 0.08800
H 	H 	0.71705 0.16641 0.72193 0.08000
H 	H 	0.70075 0.12117 0.82584 0.08800
H 	H 	0.74204 0.10825 0.79797 0.10900
H 	H 	0.70273 0.95140 0.69535 0.12000
H 	H 	0.73070 0.98612 0.79069 0.10600
H 	H 	0.68809 0.00217 0.80190 0.10600
C 	C 	0.19157 0.11814 0.26331 -0.13700
C 	C 	0.18616 0.06974 0.33731 0.16400
Cl	Cl	0.14958 0.07237 0.40392 -0.25400
C 	C 	0.20885 1.01645 0.35447 0.09700
Cl	Cl	0.20072 0.95922 0.45242 -0.27200
C 	C 	0.23697 0.00870 0.29416 -0.02700
C 	C 	0.25741 0.94214 0.29944 -0.02700
C 	C 	0.26310 0.90581 0.19431 -0.07300
C 	C 	0.29068 0.85572 0.21881 -0.05300
C 	C 	0.31371 0.89071 0.29915 -0.06300
C 	C 	0.33753 0.92982 0.23612 -0.12400
C 	C 	0.29025 0.93829 0.36728 0.11600
C 	C 	0.28361 0.90795 0.47474 -0.22000
C 	C 	0.30401 0.00769 0.39531 -0.22300
C 	C 	0.24323 0.06108 0.22534 0.09600
Cl	Cl	0.27828 0.06219 0.15210 -0.29600
C 	C 	0.22085 0.11528 0.21162 0.16600
Cl	Cl	0.22984 0.18092 0.12866 -0.27100
H 	H 	0.24164 0.90588 0.33321 0.07600
H 	H 	0.27018 0.93832 0.13208 0.08700
H 	H 	0.24125 0.87985 0.16362 0.07900
H 	H 	0.28032 0.81179 0.25415 0.07800
H 	H 	0.30265 0.83826 0.14616 0.04100
H 	H 	0.35173 0.89522 0.18468 0.01000
H 	H 	0.32490 0.96650 0.18411 0.08200
H 	H 	0.35494 0.95611 0.28983 0.06000
H 	H 	0.27237 0.85875 0.46437 0.11300
H 	H 	0.30623 0.90174 0.52437 0.10100
H 	H 	0.26679 0.94127 0.51923 0.11300
H 	H 	0.31010 0.03538 0.32626 0.11400
H 	H 	0.28645 0.03951 0.43954 0.10200
H 	H 	0.32655 1.00176 0.44550 0.09100
C 	C 	0.79900 0.60666 0.80343 -0.13100
C 	C 	0.80842 0.53854 0.80055 0.16700
Cl	Cl	0.84956 0.51367 0.78725 -0.25400
C 	C 	0.78572 0.48968 0.81440 0.09400
Cl	Cl	0.79990 0.40503 0.80869 -0.26400
C 	C 	0.75284 0.50802 0.83335 -0.02300
C 	C 	0.73021 0.45331 0.86620 -0.02800
C 	C 	0.71201 0.46830 0.96647 -0.07500
C 	C 	0.68481 0.41995 0.96028 -0.05500
C 	C 	0.67356 0.41417 0.84296 -0.04200
C 	C 	0.64741 0.47020 0.82075 -0.15700
C 	C 	0.70586 0.42138 0.78204 0.10900
C 	C 	0.72024 0.35173 0.74660 -0.21300
C 	C 	0.70103 0.46208 0.68056 -0.21800
C 	C 	0.74326 0.57720 0.82831 0.09700
Cl	Cl	0.70286 0.60747 0.83780 -0.28500
C 	C 	0.76628 0.62557 0.81439 0.16900
Cl	Cl	0.75380 0.71115 0.80893 -0.22500
H 	H 	0.74640 0.41161 0.89455 0.07200
H 	H 	0.70152 0.51939 0.97334 0.08900
H 	H 	0.72789 0.46009 1.03823 0.06700
H 	H 	0.69500 0.37110 0.98859 0.06000
H 	H 	0.66508 0.43681 1.01218 0.05900
H 	H 	0.65621 0.52011 0.84226 0.10000
H 	H 	0.63895 0.46955 0.73681 0.08700
H 	H 	0.62591 0.46320 0.86749 0.07200
H 	H 	0.72362 0.31772 0.81387 0.08800
H 	H 	0.70443 0.32749 0.68534 0.08600
H 	H 	0.74394 0.35667 0.71156 0.11200
H 	H 	0.69111 0.51315 0.69506 0.11700
H 	H 	0.72433 0.46601 0.64215 0.10400
H 	H 	0.68407 0.43694 0.62369 0.09800
C 	C 	0.45336 0.60531 0.36970 -0.13000
C 	C 	0.48271 0.58124 0.32892 0.16700
Cl	Cl	0.49420 0.60727 0.20483 -0.25100
C 	C 	0.50379 0.53809 0.38726 0.09400
Cl	Cl	0.53922 0.50726 0.32618 -0.27200
C 	C 	0.49656 0.51950 0.49033 -0.02000
C 	C 	0.52010 0.46993 0.54957 -0.03200
C 	C 	0.53031 0.48845 0.66444 -0.06400
C 	C 	0.52951 0.42411 0.72551 -0.05300
C 	C 	0.53136 0.36601 0.64349 -0.05700
C 	C 	0.51758 0.30282 0.68869 -0.13600
C 	C 	0.51151 0.39450 0.54516 0.11400
C 	C 	0.52149 0.35990 0.44052 -0.21800
C 	C 	0.47467 0.38486 0.55177 -0.21900
C 	C 	0.46727 0.54639 0.53244 0.09200
Cl	Cl	0.45555 0.52954 0.66051 -0.27700
C 	C 	0.44578 0.58757 0.47142 0.16800
Cl	Cl	0.40803 0.61383 0.52171 -0.24000
H 	H 	0.54357 0.47103 0.51215 0.08100
H 	H 	0.51586 0.52947 0.70100 0.08900
H 	H 	0.55547 0.50604 0.66923 0.06800
H 	H 	0.54945 0.42066 0.78695 0.04300
H 	H 	0.50635 0.42446 0.76601 0.07000
H 	H 	0.49351 0.31294 0.72156 0.08400
H 	H 	0.51551 0.26256 0.62738 0.07200
H 	H 	0.53390 0.28411 0.75386 0.05300
H 	H 	0.54713 0.36722 0.42434 0.11300
H 	H 	0.51802 0.30534 0.44261 0.09600
H 	H 	0.50643 0.38013 0.37345 0.11300
H 	H 	0.46584 0.40026 0.62957 0.11900
H 	H 	0.46053 0.41257 0.48970 0.11300
H 	H 	0.46906 0.33148 0.53882 0.09300
C 	C 	0.94665 0.88655 0.91703 -0.13100
C 	C 	0.96382 0.87900 1.01414 0.15200
Cl	Cl	-0.04311 0.81043 0.09372 -0.25700
C 	C 	-0.01223 0.92365 0.04705 0.10800
Cl	Cl	0.00738 0.91067 0.17209 -0.27000
C 	C 	0.99572 0.97689 0.98236 -0.03600
C 	C 	0.02375 0.02190 0.01987 -0.02100
C 	C 	0.05032 0.03071 0.94264 -0.07500
C 	C 	0.06742 0.09197 0.98484 -0.06800
C 	C 	0.04088 0.14029 0.02840 -0.03200
C 	C 	0.02698 0.18337 0.93612 -0.16600
C 	C 	0.01557 0.09216 0.07320 0.11200
C 	C 	0.02059 0.08587 0.19454 -0.22200
C 	C 	0.97985 0.11665 0.05381 -0.22400
C 	C 	0.97777 0.98450 0.88465 0.10100
Cl	Cl	0.98356 0.04973 0.79809 -0.28400
C 	C 	0.95376 0.93945 0.85273 0.16400
Cl	Cl	0.93185 0.95113 0.73126 -0.22000
H 	H 	0.03819 -0.00669 0.07982 0.07300
H 	H 	0.04162 0.03922 0.86118 0.08900
H 	H 	0.06744 -0.01355 0.94056 0.06700
H 	H 	0.08493 0.07505 0.04841 0.07300
H 	H 	0.08131 0.11441 0.92320 0.05700
H 	H 	0.01824 0.15223 0.86876 0.10400
H 	H 	0.00681 0.21748 0.96108 0.09300
H 	H 	0.04590 0.21506 0.90742 0.07500
H 	H 	0.04594 0.07005 0.21692 0.11000
H 	H 	0.01483 0.13402 0.23625 0.11100
H 	H 	1.00440 0.04860 0.22387 0.12000
H 	H 	0.97303 0.12270 -0.03010 0.12500
H 	H 	0.96322 0.08097 0.08530 0.11300
H 	H 	0.97547 0.16578 0.09435 0.11300
C 	C 	0.54414 0.11492 0.88255 -0.14100
C 	C 	0.55321 0.04672 0.87581 0.16000
Cl	Cl	0.58875 0.02008 0.81241 -0.27100
C 	C 	0.53511 -0.00067 -0.07598 0.10100
Cl	Cl	0.54861 0.91451 -0.08757 -0.26900
C 	C 	0.50726 0.01927 0.98056 -0.03900
C 	C 	0.49193 0.96739 0.04925 -0.01400
C 	C 	0.48663 0.98919 0.16352 -0.07500
C 	C 	0.46190 0.94227 0.19979 -0.05500
C 	C 	0.43832 0.93003 0.10436 -0.03900
C 	C 	0.41148 0.98630 0.10516 -0.15700
C 	C 	0.46081 0.93068 1.00648 0.09800
C 	C 	0.47125 0.85825 0.97124 -0.21500
C 	C 	0.44421 0.96319 0.90811 -0.21300
C 	C 	0.49663 0.08788 0.97699 0.09700
Cl	Cl	0.46004 0.11907 1.02814 -0.30100
C 	C 	0.51523 0.13488 0.92982 0.16300
Cl	Cl	0.50160 0.21993 0.92808 -0.28000
H 	H 	0.51103 0.92780 0.06281 0.07100
H 	H 	0.47717 1.04090 0.17362 0.08600
H 	H 	0.50940 -0.01531 0.21312 0.06300
H 	H 	0.47508 0.89497 0.22242 0.06500
H 	H 	0.44966 0.96333 0.26989 0.05400
H 	H 	0.39765 0.98408 0.17731 0.06600
H 	H 	0.42133 1.03638 0.10570 0.10300
H 	H 	0.39398 0.98106 0.03698 0.08300
H 	H 	0.48245 0.82999 1.03829 0.09700
H 	H 	0.45042 0.83037 0.93776 0.09700
H 	H 	0.48894 0.85883 0.90887 0.11300
H 	H 	0.43618 1.01558 0.92266 0.11100
H 	H 	0.46097 0.96209 0.84257 0.09800
H 	H 	0.42263 0.93529 0.88119 0.09200
C 	C 	0.03672 0.37368 0.40436 -0.14200
C 	C 	0.00343 0.38113 0.38067 0.17000
Cl	Cl	0.98625 0.33887 0.26895 -0.25200
C 	C 	0.98371 0.42221 0.44429 0.09000
Cl	Cl	0.94193 0.42897 0.40735 -0.25700
C 	C 	-0.00277 0.45827 0.53260 -0.01900
C 	C 	0.97561 0.51175 0.58865 -0.03200
C 	C 	0.97714 0.51298 0.70978 -0.06300
C 	C 	0.98079 0.58594 0.74432 -0.05400
C 	C 	0.96708 0.62807 0.65148 -0.04900
C 	C 	0.98083 0.69881 0.66034 -0.14200
C 	C 	0.97771 0.58553 0.55224 0.11200
C 	C 	0.95512 0.59849 0.45369 -0.21900
C 	C 	0.01231 0.60182 0.52125 -0.21500
C 	C 	0.03084 0.44634 0.55990 0.09000
Cl	Cl	0.05081 0.48522 0.66979 -0.29600
C 	C 	0.05014 0.40405 0.49592 0.16600
Cl	Cl	0.09214 0.39305 0.52639 -0.27300
H 	H 	0.95020 0.49882 0.57135 0.08600
H 	H 	-0.00417 0.47938 0.74692 0.08700
H 	H 	0.95407 0.49588 0.73887 0.08000
H 	H 	0.96830 0.59803 0.81825 0.04700
H 	H 	1.00690 0.59444 0.76026 0.06500
H 	H 	0.97141 0.72668 0.72979 0.06200
H 	H 	0.00757 0.69726 0.67043 0.07200
H 	H 	0.97368 0.72736 0.58893 0.08400
H 	H 	0.93002 0.58396 0.46491 0.11900
H 	H 	0.95436 0.65222 0.43440 0.10400
H 	H 	0.96402 0.56932 0.38469 0.11100
H 	H 	0.02982 0.60073 0.58935 0.11100
H 	H 	0.02117 0.56705 0.45871 0.10000
H 	H 	0.01246 0.65261 0.48871 0.09200
