data_crystal

_cell_length_a 15.95800
_cell_length_b 29.12810
_cell_length_c 36.29620
_cell_angle_alpha 94.76710
_cell_angle_beta  88.30270
_cell_angle_gamma 83.13060

_symmetry_space_group_name_	'P 1'
_symmetry_space_group_name_H-M	'P 1'

loop_
_symmetry_equiv_pos_as_xyz
  x,y,z

loop_
_atom_site_label
_atom_site_type_symbol
_atom_site_fract_x
_atom_site_fract_y
_atom_site_fract_z
_atom_site_charge
Dy	Dy	0.49491 0.53045 0.48629 1.23900
Dy	Dy	0.50901 0.47266 0.52800 1.31500
O 	O 	0.47116 0.50520 0.40714 -0.28000
O 	O 	0.49082 0.57360 0.43740 -0.25100
C 	C 	0.45068 0.49586 0.59857 0.38500
C 	C 	0.66105 0.52854 0.52438 0.39700
C 	C 	0.47218 0.38722 0.53599 0.31800
C 	C 	0.33703 0.48238 0.48873 0.36100
O 	O 	0.36473 0.51779 0.47701 -0.40200
O 	O 	0.38273 0.45593 0.50902 -0.33700
C 	C 	0.45050 0.62049 0.50479 0.36300
O 	O 	0.45065 0.58985 0.52724 -0.36500
O 	O 	0.46908 0.60332 0.47202 -0.28800
O 	O 	0.62491 0.54329 0.49623 -0.45800
C 	C 	0.47353 0.54669 0.40559 0.27200
O 	O 	0.54103 0.40160 0.54504 -0.35300
O 	O 	0.42172 0.41854 0.52279 -0.26200
O 	O 	0.49977 0.46036 0.58810 -0.35100
O 	O 	0.43086 0.51843 0.57180 -0.39800
O 	O 	0.62640 0.50089 0.54360 -0.45200
Dy	Dy	0.49137 0.50900 0.98822 1.20900
Dy	Dy	0.47960 0.48870 0.04924 1.47300
O 	O 	0.43811 0.48844 0.91223 -0.23500
O 	O 	0.53983 0.52993 0.93410 -0.26100
C 	C 	0.54861 0.49551 0.11602 0.41000
C 	C 	0.59108 0.41650 -0.00338 0.39900
C 	C 	0.32626 0.48432 0.07763 0.34800
C 	C 	0.39530 0.58836 0.03719 0.33900
O 	O 	0.43387 0.57966 0.00567 -0.42200
O 	O 	0.39747 0.55674 0.06019 -0.34200
C 	C 	0.65057 0.52760 0.99313 0.37200
O 	O 	0.60435 0.51987 0.01978 -0.47800
O 	O 	0.60918 0.53187 0.96419 -0.31100
O 	O 	0.55125 0.43841 0.97240 -0.45600
C 	C 	0.50161 0.50627 0.90536 0.29000
O 	O 	0.37278 0.44978 0.06142 -0.39000
O 	O 	0.35949 0.52201 0.07724 -0.28900
O 	O 	0.50120 0.46636 0.10571 -0.36000
O 	O 	0.56086 0.52125 0.09105 -0.38200
O 	O 	0.57641 0.42983 0.03075 -0.45600
Dy	Dy	1.04154 0.02548 0.48020 1.71600
Dy	Dy	0.03502 0.93345 0.52537 1.89100
O 	O 	-0.00508 0.97066 0.41302 -0.26200
O 	O 	1.01272 0.04622 0.42315 -0.29300
C 	C 	0.08783 0.95040 0.59064 0.39000
C 	C 	0.20375 -0.03601 0.47776 0.42800
C 	C 	0.95279 0.86232 0.51870 0.33700
C 	C 	0.89019 0.00634 0.50232 0.41300
O 	O 	0.91250 0.04596 0.49854 -0.47500
O 	O 	0.94268 0.97100 0.49013 -0.63300
C 	C 	0.08196 0.10900 0.46850 0.33000
O 	O 	0.08715 0.09191 0.49927 -0.42900
O 	O 	0.04758 0.08370 0.44486 -0.32600
O 	O 	0.16806 -0.00124 0.46320 -0.52900
C 	C 	0.98700 0.00899 0.40151 0.26100
O 	O 	1.01640 0.86702 0.49762 -0.46500
O 	O 	0.93181 0.89639 0.54330 -0.40700
O 	O 	0.10403 0.91052 0.57241 -0.44000
O 	O 	1.04571 -0.01822 0.57349 -0.52500
O 	O 	0.16380 0.94086 0.49977 -0.54000
Dy	Dy	0.06444 0.02358 0.95524 2.10500
Dy	Dy	0.96748 1.00239 0.04550 2.15900
O 	O 	1.09104 0.98341 0.87820 -0.28000
O 	O 	-0.00135 0.04251 0.90399 -0.44300
C 	C 	1.02360 0.96354 0.10220 0.34900
C 	C 	0.03569 0.92503 -0.02681 0.51800
C 	C 	0.81938 0.04665 0.05557 0.39300
C 	C 	1.03054 0.09111 0.00703 0.51700
O 	O 	0.06878 0.09603 -0.02332 -0.49200
O 	O 	1.00948 0.05068 0.00895 -0.82500
C 	C 	0.21801 -0.00597 0.97164 0.36500
O 	O 	0.15673 0.00108 -0.00465 -0.48300
O 	O 	0.19901 0.00583 0.93961 -0.46000
O 	O 	0.04473 0.95114 0.94699 -0.56100
C 	C 	0.02668 0.00957 0.87496 0.30400
O 	O 	0.84008 1.01603 0.02823 -0.48500
O 	O 	0.87992 0.05589 0.07639 -0.47600
O 	O 	0.95112 0.95786 0.08935 -0.44300
O 	O 	1.06701 -0.01060 0.08426 -0.48300
O 	O 	0.01770 0.93948 0.00747 -0.53900
C 	C 	0.44217 0.67132 0.51618 -0.15700
C 	C 	0.53037 0.68494 0.51685 -0.03900
C 	C 	0.58352 0.67090 0.54514 0.22000
F 	F 	0.55296 0.64999 0.57389 -0.38400
C 	C 	0.66948 0.67546 0.54288 0.23600
F 	F 	0.71934 0.65965 0.56995 -0.39800
C 	C 	0.70426 0.69392 0.51213 -0.08600
C 	C 	0.79895 0.69163 0.50684 -0.05500
C 	C 	0.83111 0.73829 0.50789 0.09500
C 	C 	0.80151 0.77434 0.53503 -0.04900
C 	C 	0.84007 0.81514 0.53842 0.05000
C 	C 	0.90902 0.82040 0.51483 -0.06300
C 	C 	0.93853 0.78426 0.48785 0.04000
C 	C 	0.89999 0.74370 0.48442 -0.06000
C 	C 	0.65063 0.70994 0.48462 0.24400
F 	F 	0.68286 0.72741 0.45447 -0.38300
C 	C 	0.56424 0.70547 0.48693 0.22500
F 	F 	0.51494 0.71829 0.45877 -0.38300
H 	H 	0.41096 0.67891 0.54416 0.12900
H 	H 	0.40239 0.69053 0.49650 0.13300
H 	H 	0.83165 0.67244 0.52850 0.09000
H 	H 	0.81787 0.67107 0.48006 0.08100
H 	H 	0.74958 0.77063 0.55397 0.10000
H 	H 	0.81716 0.84198 0.56000 0.10800
H 	H 	0.99285 0.78685 0.46986 0.06100
H 	H 	0.92593 0.71586 0.46415 0.08600
C 	C 	0.45096 0.33970 0.54206 -0.13900
C 	C 	0.40528 0.31966 0.50990 -0.04500
C 	C 	0.31715 0.33002 0.50846 0.22300
F 	F 	0.27302 0.35859 0.53563 -0.35100
C 	C 	0.27365 0.31017 0.47964 0.23700
F 	F 	0.18851 0.32070 0.47900 -0.37300
C 	C 	0.31719 0.27883 0.45200 -0.08300
C 	C 	0.26842 0.25493 0.42252 -0.06000
C 	C 	0.21556 0.21980 0.43701 0.09500
C 	C 	0.14969 0.20553 0.41571 -0.06800
C 	C 	0.10294 0.17104 0.42687 0.04400
C 	C 	0.12097 0.15035 0.45974 -0.07700
C 	C 	0.18572 0.16499 0.48145 0.04100
C 	C 	0.23335 0.19886 0.47002 -0.05500
C 	C 	0.40566 0.26909 0.45300 0.23700
F 	F 	0.44961 0.23900 0.42672 -0.38000
C 	C 	0.44935 0.28944 0.48164 0.21900
F 	F 	0.53456 0.27906 0.48220 -0.38000
H 	H 	0.41079 0.34190 0.56783 0.12600
H 	H 	0.50968 0.31679 0.54687 0.12700
H 	H 	0.22666 0.28210 0.40981 0.09300
H 	H 	0.31151 0.23688 0.39986 0.10300
H 	H 	0.13561 0.22044 0.38991 0.08000
H 	H 	0.05430 0.15963 0.40933 0.05900
H 	H 	0.20263 0.14843 0.50631 0.05900
H 	H 	0.28536 0.20757 0.48660 0.08500
C 	C 	0.04665 0.87361 0.96321 -0.23400
C 	C 	0.08908 0.84738 -0.00675 -0.00600
C 	C 	0.17307 0.85265 0.00164 0.21000
F 	F 	0.21581 0.88208 -0.01653 -0.40000
C 	C 	0.21337 0.82780 0.02883 0.23600
F 	F 	0.29480 0.83322 0.03604 -0.39300
C 	C 	0.17028 0.79719 0.04812 -0.07800
C 	C 	0.21253 0.77144 0.07846 -0.06400
C 	C 	0.25500 0.72303 0.06606 0.10500
C 	C 	0.27234 0.69160 0.09299 -0.06400
C 	C 	0.31739 0.64784 0.08357 0.05400
C 	C 	0.34645 0.63447 0.04695 -0.06400
C 	C 	0.32876 0.66568 1.01983 0.04000
C 	C 	0.28355 0.70949 1.02923 -0.06000
C 	C 	0.08616 0.79214 1.03989 0.24300
F 	F 	0.04310 0.76296 1.05818 -0.36700
C 	C 	0.04550 0.81741 1.01301 0.21000
F 	F 	-0.03669 0.81294 1.00660 -0.36800
H 	H 	0.08536 0.86516 -0.06299 0.14200
H 	H 	-0.01671 0.86301 0.95784 0.14200
H 	H 	0.26054 0.79158 0.09135 0.10000
H 	H 	0.16439 0.76946 0.10090 0.10400
H 	H 	0.25222 0.70131 0.12162 0.08600
H 	H 	0.33086 0.62474 0.10511 0.07300
H 	H 	0.35022 0.65634 0.99130 0.06300
H 	H 	0.27262 0.73284 1.00771 0.09000
C 	C 	1.01209 0.12963 1.03723 -0.23300
C 	C 	0.96789 0.17153 1.02093 -0.02800
C 	C 	1.01101 0.20980 0.01499 0.23000
F 	F 	1.08868 0.21273 0.02861 -0.36400
C 	C 	0.97679 0.24387 -0.00714 0.24000
F 	F 	1.02175 0.27922 -0.01394 -0.36300
C 	C 	0.89866 0.24029 -0.02345 -0.07600
C 	C 	0.86657 0.27302 -0.05152 -0.05900
C 	C 	0.79237 0.30817 -0.03785 0.10500
C 	C 	0.77744 0.32343 -0.00017 -0.06800
C 	C 	0.71086 0.35790 0.01107 0.05200
C 	C 	0.65787 0.37787 -0.01509 -0.10800
C 	C 	0.67421 0.36346 0.94720 0.05000
C 	C 	0.74037 0.32880 0.93601 -0.08400
C 	C 	0.85308 0.20374 0.98460 0.23200
F 	F 	0.77819 0.19913 0.96877 -0.38100
C 	C 	0.88685 0.17003 1.00705 0.21400
F 	F 	0.84326 0.13394 1.01299 -0.40200
H 	H 	1.07253 0.13701 0.04935 0.14000
H 	H 	0.97173 0.11929 1.05972 0.11300
H 	H 	0.91759 0.29213 -0.06158 0.10100
H 	H 	0.84830 0.25149 0.92396 0.09000
H 	H 	0.81796 0.30948 0.02064 0.09200
H 	H 	0.70249 0.36987 0.04013 0.05300
H 	H 	0.63724 0.37973 0.92618 0.05300
H 	H 	0.75184 0.31855 0.90673 0.08000
C 	C 	0.25197 0.47053 0.47777 -0.15900
C 	C 	0.18249 0.50084 0.50046 -0.03000
C 	C 	0.13381 0.48192 0.52695 0.22100
F 	F 	0.14755 0.43610 0.53221 -0.33800
C 	C 	0.07038 0.51010 0.54836 0.24500
F 	F 	0.02521 0.49098 0.57407 -0.37800
C 	C 	0.05325 0.55758 0.54328 -0.07800
C 	C 	0.98259 0.58730 0.56579 -0.07100
C 	C 	0.89819 0.57287 0.55540 0.10700
C 	C 	0.84545 0.55666 0.58177 -0.05500
C 	C 	0.76855 0.54190 0.57160 0.07400
C 	C 	0.74248 0.54390 0.53505 -0.10300
C 	C 	0.79428 0.56134 0.50896 0.06000
C 	C 	0.87180 0.57526 0.51899 -0.08000
C 	C 	0.10123 0.57649 0.51653 0.24400
F 	F 	1.08563 0.62209 0.51061 -0.40400
C 	C 	0.16511 0.54834 0.49524 0.21800
F 	F 	0.20928 0.56741 0.46916 -0.37600
H 	H 	0.24899 0.43320 0.48116 0.14900
H 	H 	0.24427 0.47482 0.44786 0.12000
H 	H 	0.99334 0.58412 0.59566 0.09200
H 	H 	0.98211 0.62462 0.56143 0.09900
H 	H 	0.86394 0.55516 0.61015 0.09500
H 	H 	0.72892 0.52953 0.59244 0.06300
H 	H 	0.77537 0.56367 0.48070 0.04500
H 	H 	0.91159 0.58780 0.49832 0.08300
C 	C 	0.24211 0.48122 0.09592 -0.15100
C 	C 	0.17728 0.47507 0.06727 -0.03400
C 	C 	0.14543 0.51300 1.04813 0.20900
F 	F 	0.17151 0.55531 1.05596 -0.38400
C 	C 	0.08674 0.50759 1.02078 0.24500
F 	F 	0.05741 0.54471 1.00254 -0.38100
C 	C 	0.05956 0.46404 1.01183 -0.08800
C 	C 	0.00152 0.45758 0.98019 -0.05000
C 	C 	0.91525 0.48472 0.98763 0.08300
C 	C 	0.88035 0.51422 0.96180 -0.06300
C 	C 	0.79465 0.53212 0.96485 0.04900
C 	C 	0.74354 0.52170 0.99439 -0.10600
C 	C 	0.78071 0.49568 0.02197 0.05600
C 	C 	0.86528 0.47665 0.01828 -0.07000
C 	C 	0.09039 0.42622 0.03146 0.24800
F 	F 	0.06498 0.38374 0.02369 -0.35900
C 	C 	0.14878 0.43169 0.05898 0.22600
F 	F 	0.17839 0.39443 0.07706 -0.35900
H 	H 	0.22170 0.51329 0.11434 0.14400
H 	H 	0.24855 0.45209 0.11394 0.15100
H 	H 	0.03222 0.46771 0.95472 0.09000
H 	H 	-0.00748 0.42044 0.97454 0.10300
H 	H 	0.91804 0.52097 0.93800 0.08500
H 	H 	0.76756 0.55187 0.94317 0.05900
H 	H 	0.74261 0.48650 0.04481 0.05100
H 	H 	0.89041 0.45357 0.03828 0.08800
C 	C 	0.80885 0.00193 0.52296 -0.18300
C 	C 	0.74785 0.97634 0.50032 -0.02100
C 	C 	0.71214 -0.00528 0.46884 0.20900
F 	F 	0.73618 0.03427 0.45684 -0.37600
C 	C 	0.64980 0.97310 0.45007 0.24700
F 	F 	0.61593 0.99183 0.41999 -0.38600
C 	C 	0.62288 0.93232 0.46209 -0.08000
C 	C 	0.56006 0.90716 0.44034 -0.06700
C 	C 	0.46937 0.92503 0.45174 0.10300
C 	C 	0.41850 0.95082 0.42798 -0.07600
C 	C 	0.33256 -0.03625 0.43671 0.05400
C 	C 	0.29511 0.95035 0.46907 -0.12500
C 	C 	0.34609 0.92494 0.49307 0.06200
C 	C 	0.43252 0.91258 0.48455 -0.08600
C 	C 	0.65904 0.91383 0.49335 0.24000
F 	F 	0.63521 0.87433 0.50554 -0.39400
C 	C 	0.71971 0.93602 0.51256 0.21300
F 	F 	0.74876 0.91890 0.54400 -0.39000
H 	H 	0.77663 0.03715 0.53236 0.12600
H 	H 	0.82527 -0.01528 0.54839 0.10600
H 	H 	0.57165 0.91017 0.41033 0.09900
H 	H 	0.57072 0.86930 0.44351 0.10900
H 	H 	0.44495 0.96046 0.40236 0.10000
H 	H 	0.29496 -0.01643 0.41774 0.05200
H 	H 	0.31923 0.91489 0.51852 0.04400
H 	H 	0.47020 0.89245 0.50320 0.11200
C 	C 	0.72933 0.06676 0.06388 -0.16100
C 	C 	0.67295 0.03105 0.05097 -0.02500
C 	C 	0.65692 1.02403 1.01309 0.22800
F 	F 	0.68369 1.05277 0.98880 -0.36200
C 	C 	0.61747 0.98603 0.99979 0.23500
F 	F 	0.60455 0.97954 0.96299 -0.38700
C 	C 	0.59328 0.95425 0.02404 -0.07200
C 	C 	0.54899 0.91375 0.00964 -0.06700
C 	C 	0.46116 0.93128 -0.00068 0.11800
C 	C 	0.43813 0.92915 0.96225 -0.06500
C 	C 	0.35870 0.94972 0.95298 0.07100
C 	C 	0.30171 0.97241 0.98074 -0.08000
C 	C 	0.32290 0.97187 0.01791 0.08100
C 	C 	0.40225 0.95180 0.02710 -0.07400
C 	C 	0.60853 0.96155 0.06194 0.24700
F 	F 	0.58613 0.93151 0.08605 -0.36800
C 	C 	0.64780 -0.00038 0.07526 0.21900
F 	F 	0.66433 0.00480 0.11177 -0.36100
H 	H 	0.71446 0.09919 0.05007 0.15700
H 	H 	0.71998 0.07588 0.09421 0.14000
H 	H 	0.58632 0.89445 0.98564 0.09600
H 	H 	0.54415 0.88859 0.03078 0.11700
H 	H 	0.48189 0.91226 0.94053 0.09900
H 	H 	0.34132 0.94744 0.92433 0.06500
H 	H 	0.27844 -0.01252 0.03989 0.05700
H 	H 	0.41842 0.95294 0.05587 0.11000
C 	C 	0.58489 0.49868 0.15352 -0.17500
C 	C 	0.53584 0.53674 0.17916 -0.03100
C 	C 	0.57659 0.57209 0.19710 0.22200
F 	F 	0.65888 0.57570 0.18868 -0.37000
C 	C 	0.53358 0.60304 0.22493 0.24500
F 	F 	0.57525 0.63571 0.24277 -0.37800
C 	C 	0.44879 0.59971 0.23484 -0.08100
C 	C 	0.40502 0.62973 0.26752 -0.06200
C 	C 	0.42371 0.60830 0.30345 0.09000
C 	C 	0.46377 0.63202 0.33187 -0.05700
C 	C 	0.47934 0.61229 0.36533 0.03100
C 	C 	0.45611 0.56818 0.37065 -0.05300
C 	C 	0.41526 0.54481 0.34241 0.03500
C 	C 	0.39877 0.56474 0.30929 -0.06900
C 	C 	0.40640 0.56661 0.21497 0.23600
F 	F 	0.32360 0.56361 0.22279 -0.38900
C 	C 	0.44979 0.53500 0.18788 0.21900
F 	F 	0.40825 0.50153 0.17108 -0.37900
H 	H 	0.65288 0.50301 0.15065 0.13300
H 	H 	0.58144 0.46523 0.16583 0.12400
H 	H 	0.42456 0.66516 0.26815 0.09800
H 	H 	0.33553 0.63424 0.26442 0.10100
H 	H 	0.48282 0.66588 0.32825 0.09400
H 	H 	0.51030 0.63126 0.38681 0.08200
H 	H 	0.39506 0.51123 0.34608 0.06300
H 	H 	0.36647 0.54601 0.28823 0.10700
C 	C 	0.54273 0.49924 0.86715 -0.12200
C 	C 	0.48230 0.51343 0.83764 -0.04800
C 	C 	0.42012 0.48518 0.82685 0.23100
F 	F 	0.41249 0.44560 0.84327 -0.37200
C 	C 	0.36638 0.49689 0.79850 0.23500
F 	F 	0.30635 0.46916 0.78914 -0.38000
C 	C 	0.37518 0.53641 0.77966 -0.07700
C 	C 	0.31839 0.54833 0.74839 -0.06500
C 	C 	0.36168 0.53630 0.71064 0.10100
C 	C 	0.40964 0.49286 0.70140 -0.07100
C 	C 	0.44002 0.47991 0.66503 0.05600
C 	C 	0.42141 0.50976 0.63716 -0.10100
C 	C 	0.37506 0.55342 0.64644 0.05800
C 	C 	0.34604 0.56671 0.68288 -0.07000
C 	C 	0.43693 0.56484 0.79046 0.24100
F 	F 	0.44499 0.60387 0.77333 -0.37800
C 	C 	0.48978 0.55360 0.81935 0.22700
F 	F 	0.54835 0.58195 0.82937 -0.37500
H 	H 	0.56747 0.46194 0.86117 0.10800
H 	H 	0.59833 0.51876 0.86676 0.12200
H 	H 	0.26218 0.52935 0.74916 0.10600
H 	H 	0.29373 0.58583 0.75238 0.09700
H 	H 	0.42295 0.46869 0.72217 0.09600
H 	H 	0.47658 0.44622 0.65855 0.05900
H 	H 	0.36055 0.57714 0.62540 0.06400
H 	H 	0.30904 0.60026 0.68913 0.08800
C 	C 	0.05376 0.94264 0.13639 -0.12500
C 	C 	1.00020 0.96551 0.16936 -0.04500
C 	C 	1.02736 0.00238 0.19151 0.21200
F 	F 	0.10320 0.01711 0.18421 -0.36700
C 	C 	0.97565 0.02514 0.22086 0.24400
F 	F 	1.00302 0.06107 0.24143 -0.39000
C 	C 	0.89582 0.01145 0.22862 -0.08300
C 	C 	0.83933 0.03709 0.25973 -0.06500
C 	C 	0.87698 0.03000 0.29668 0.09200
C 	C 	0.90542 0.06713 0.31791 -0.05100
C 	C 	0.94156 0.06024 0.35192 0.03600
C 	C 	0.94936 0.01614 0.36540 -0.05400
C 	C 	0.91989 0.97912 0.34425 0.03900
C 	C 	0.88388 0.98604 0.31023 -0.06100
C 	C 	0.86899 0.97429 0.20665 0.24800
F 	F 	0.79247 0.96010 0.21343 -0.36500
C 	C 	0.92069 0.95157 0.17728 0.23200
F 	F 	0.89265 0.91626 0.15620 -0.35400
H 	H 	0.12128 -0.05275 0.13987 0.12700
H 	H 	0.05015 0.90465 0.13348 0.12600
H 	H 	0.82968 0.07453 0.25500 0.09500
H 	H 	0.77561 1.02537 0.26005 0.11500
H 	H 	0.90039 0.10138 0.30799 0.09200
H 	H 	0.96323 0.08950 0.36764 0.06400
H 	H 	0.92430 0.94483 0.35406 0.06200
H 	H 	0.86143 0.95710 0.29438 0.09600
C 	C 	0.11387 0.95907 0.62957 -0.16200
C 	C 	0.03746 0.96920 0.65584 -0.02200
C 	C 	0.02170 0.01164 0.67784 0.22500
F 	F 	0.07289 0.04525 0.67481 -0.37600
C 	C 	0.95441 0.01925 0.70406 0.23000
F 	F 	0.94204 0.06001 0.72568 -0.38500
C 	C 	0.90252 0.98430 0.70916 -0.07800
C 	C 	0.83882 0.98982 0.74141 -0.05600
C 	C 	0.88375 0.99413 0.77728 0.09100
C 	C 	0.86440 0.03341 0.80260 -0.05100
C 	C 	0.91111 0.03873 0.83437 0.02500
C 	C 	-0.02216 0.00484 0.84123 -0.05100
C 	C 	0.99620 0.96530 0.81606 0.01600
C 	C 	0.94873 0.95965 0.78476 -0.05800
C 	C 	0.91569 0.94280 0.68593 0.24200
F 	F 	0.86565 0.90876 0.68955 -0.38300
C 	C 	0.98274 0.93525 0.65964 0.20200
F 	F 	-0.00426 0.89413 0.63854 -0.37100
H 	H 	0.15362 -0.01211 0.63098 0.12200
H 	H 	0.15337 0.92779 0.63773 0.12400
H 	H 	0.79226 0.02083 0.73870 0.08900
H 	H 	0.80279 0.95945 0.74165 0.10400
H 	H 	0.81407 0.06024 0.79749 0.08700
H 	H 	0.89567 0.06957 0.85328 0.06800
H 	H 	0.04719 0.93858 0.82063 0.07300
H 	H 	0.96447 0.92900 0.76567 0.08400
