data_crystal

_cell_length_a 37.93300
_cell_length_b 21.98640
_cell_length_c 10.06130
_cell_angle_alpha 85.96330
_cell_angle_beta  88.23680
_cell_angle_gamma 91.77550

_symmetry_space_group_name_	'P 1'
_symmetry_space_group_name_H-M	'P 1'

loop_
_symmetry_equiv_pos_as_xyz
  x,y,z

loop_
_atom_site_label
_atom_site_type_symbol
_atom_site_fract_x
_atom_site_fract_y
_atom_site_fract_z
_atom_site_charge
Eu	Eu	0.39675 0.74999 0.19589 1.84100
O 	O 	0.33631 0.84053 0.14224 -0.28800
C 	C 	0.31959 0.70073 0.18602 0.31600
O 	O 	0.47682 0.74028 0.15115 -0.24600
O 	O 	0.44198 0.82081 0.16944 -0.43000
O 	O 	0.41284 0.62197 0.28025 -0.25500
O 	O 	0.31748 0.72253 0.07171 -0.25600
O 	O 	0.35150 0.67903 0.23005 -0.39100
O 	O 	0.36742 0.81445 0.32437 -0.41500
C 	C 	0.33832 0.83952 0.26298 0.27700
O 	O 	0.42039 0.70848 0.38591 -0.39900
C 	C 	0.41922 0.64521 0.38385 0.35900
C 	C 	0.47489 0.79455 0.16657 0.27400
Eu	Eu	0.87381 0.73680 0.78758 1.80000
O 	O 	0.83266 0.84600 0.86808 -0.26600
C 	C 	0.80336 0.66177 0.85994 0.27900
O 	O 	0.97998 0.79523 0.85185 -0.13700
O 	O 	0.93362 0.75104 0.75676 -0.37900
O 	O 	0.91120 0.62830 0.70522 -0.25800
O 	O 	0.77894 0.65183 0.94136 -0.15900
O 	O 	0.81401 0.72208 0.82298 -0.38300
O 	O 	0.86414 0.82931 0.67914 -0.37600
C 	C 	0.84348 0.86558 0.75721 0.33200
O 	O 	0.87375 0.68906 0.59265 -0.38800
C 	C 	0.89495 0.63836 0.60381 0.27400
C 	C 	0.94820 0.79456 0.83497 0.28600
Eu	Eu	0.11746 0.25678 0.17412 1.82700
O 	O 	0.10783 0.15947 0.41732 -0.23900
C 	C 	0.19288 0.31165 0.16394 0.28300
O 	O 	0.03842 0.26129 0.13838 -0.28000
O 	O 	0.07519 0.18265 0.15381 -0.41500
O 	O 	0.08593 0.37096 0.25927 -0.28100
O 	O 	0.19554 0.27010 0.09070 -0.27800
O 	O 	0.15955 0.33061 0.20021 -0.41800
O 	O 	0.15367 0.18698 0.27348 -0.38800
C 	C 	0.13934 0.15682 0.38995 0.32800
O 	O 	0.09227 0.27957 0.37230 -0.39300
C 	C 	0.08193 0.33987 0.36434 0.33700
C 	C 	0.04159 0.20631 0.15460 0.29300
Eu	Eu	0.59002 0.24877 0.67972 1.86100
O 	O 	0.61883 0.13136 0.71692 -0.27200
C 	C 	0.66610 0.28175 0.76323 0.29000
O 	O 	0.48992 0.19865 0.86756 -0.16000
O 	O 	0.53232 0.21630 0.70557 -0.36500
O 	O 	0.53399 0.36174 0.65101 -0.22900
O 	O 	0.65081 0.27001 0.87071 -0.30300
O 	O 	0.64739 0.28119 0.64674 -0.44000
O 	O 	0.60091 0.17898 0.52797 -0.38500
C 	C 	0.61825 0.13215 0.59586 0.27700
O 	O 	0.57553 0.32186 0.52183 -0.39100
C 	C 	0.56156 0.37012 0.58589 0.23900
C 	C 	0.52127 0.20797 0.83919 0.28300
C 	C 	0.28834 0.69920 0.28133 -0.13500
C 	C 	0.27811 0.63462 0.33068 -0.04300
C 	C 	0.24946 0.60405 0.27652 0.22900
F 	F 	0.23143 0.63133 0.17547 -0.37100
C 	C 	0.23924 0.54493 0.32564 0.24300
F 	F 	0.21112 0.51689 0.27270 -0.38300
C 	C 	0.25791 0.51478 0.42802 -0.07700
C 	C 	0.24632 0.45116 0.48117 -0.06300
C 	C 	0.25067 0.40699 0.37454 0.09700
C 	C 	0.22092 0.38001 0.32032 -0.04000
C 	C 	0.22461 0.34059 0.21738 -0.00500
C 	C 	0.25862 0.32809 0.16928 -0.06300
C 	C 	0.28854 0.35444 0.22389 0.13600
N 	N 	0.32309 0.34141 0.17510 -0.19500
C 	C 	0.28445 0.39364 0.32667 -0.10900
C 	C 	0.28714 0.54478 0.47997 0.23800
F 	F 	0.30643 0.51628 0.57571 -0.38600
C 	C 	0.29686 0.60447 0.43288 0.23200
F 	F 	0.32453 0.63303 0.48766 -0.39200
H 	H 	0.26588 0.72217 0.23297 0.11900
H 	H 	0.29516 0.72585 0.36737 0.09700
H 	H 	0.21827 0.45220 0.51627 0.08800
H 	H 	0.26150 0.43526 0.56908 0.09900
H 	H 	0.19489 0.39000 0.35862 0.08800
H 	H 	0.26196 0.29788 0.08968 0.08600
H 	H 	0.34548 0.36120 0.21473 0.12400
H 	H 	0.32652 0.31202 0.09895 0.12000
H 	H 	0.30752 0.41415 0.36883 0.10100
C 	C 	0.83481 0.92890 0.70489 -0.14200
C 	C 	0.79596 0.93353 0.67689 -0.03800
C 	C 	0.77500 0.97571 0.73931 0.22500
F 	F 	0.78919 1.01330 0.82641 -0.38300
C 	C 	0.73895 0.97885 0.71398 0.23700
F 	F 	0.71930 0.01973 0.77590 -0.39400
C 	C 	0.72312 0.93924 0.62762 -0.08000
C 	C 	0.68355 0.93718 0.61338 -0.06800
C 	C 	0.67106 -0.00702 0.53554 0.10200
C 	C 	0.64998 0.03453 0.59783 -0.05000
C 	C 	0.63750 0.08604 0.52526 0.00200
C 	C 	0.64569 0.09478 0.38802 -0.07400
C 	C 	0.66716 0.05377 0.32530 0.13000
N 	N 	0.67709 0.06455 0.18725 -0.19800
C 	C 	0.67966 0.00292 0.39918 -0.11800
C 	C 	0.74435 0.89888 0.56132 0.23900
F 	F 	0.73016 0.86157 0.47368 -0.39000
C 	C 	0.78040 0.89626 0.58526 0.22600
F 	F 	0.80004 0.85614 0.52106 -0.37400
H 	H 	0.85036 0.94120 0.61107 0.12600
H 	H 	0.84324 0.96136 0.77847 0.12700
H 	H 	0.67077 0.93189 0.71472 0.08800
H 	H 	0.67477 0.89648 0.56224 0.09500
H 	H 	0.64349 0.02690 0.70346 0.10500
H 	H 	0.63636 0.13423 0.33041 0.07700
H 	H 	0.69397 0.03526 0.14097 0.13000
H 	H 	0.66872 0.10304 0.13169 0.11300
H 	H 	0.69598 -0.02908 0.35070 0.10400
C 	C 	0.16287 0.12279 0.48395 -0.14000
C 	C 	0.17235 0.06168 0.43536 -0.04200
C 	C 	0.19792 0.05776 0.33209 0.22400
F 	F 	0.21324 0.10913 0.26976 -0.38100
C 	C 	0.20903 0.00078 0.29648 0.24300
F 	F 	0.23459 -0.00182 0.19982 -0.38900
C 	C 	0.19489 0.94678 0.36356 -0.07800
C 	C 	0.20999 0.88581 0.33598 -0.06700
C 	C 	0.24715 0.88153 0.38487 0.10000
C 	C 	0.27517 0.86749 0.29867 -0.04800
C 	C 	0.30947 0.86185 0.34645 -0.01400
C 	C 	0.31577 0.87319 0.47929 -0.06500
C 	C 	0.28817 0.88785 0.56524 0.13500
N 	N 	0.29503 0.89978 0.70007 -0.19500
C 	C 	0.25385 0.89038 0.51885 -0.10900
C 	C 	0.16836 0.95070 0.46318 0.23600
F 	F 	0.15422 0.89956 0.53052 -0.37200
C 	C 	0.15729 0.00756 0.49889 0.23000
F 	F 	0.13254 0.00967 0.59877 -0.36500
H 	H 	0.14954 0.11697 0.58408 0.12500
H 	H 	0.18724 0.15085 0.49677 0.10800
H 	H 	0.20912 0.87963 0.22746 0.09700
H 	H 	0.19386 0.84753 0.38700 0.11100
H 	H 	0.27000 0.85874 0.19632 0.08200
H 	H 	0.34213 0.86995 0.51681 0.07900
H 	H 	0.27450 0.90966 0.76583 0.12500
H 	H 	0.32079 0.90038 0.73389 0.11300
H 	H 	0.23241 0.90005 0.58679 0.10500
C 	C 	0.82123 0.61046 0.79621 -0.12200
C 	C 	0.80922 0.54655 0.84884 -0.05700
C 	C 	0.77345 0.52739 0.84795 0.22700
F 	F 	0.74876 0.56574 0.79968 -0.37900
C 	C 	0.76289 0.46800 0.89441 0.23500
F 	F 	0.72802 0.45187 0.89870 -0.39900
C 	C 	0.78808 0.42497 0.93211 -0.08700
C 	C 	0.77674 0.35913 0.96839 -0.05800
C 	C 	0.75840 0.33285 0.85336 0.09000
C 	C 	0.72249 0.31486 0.86556 -0.03200
C 	C 	0.70441 0.29687 0.75430 -0.01700
C 	C 	0.72287 0.29572 0.63122 -0.06000
C 	C 	0.75887 0.31200 0.61894 0.12400
N 	N 	0.77716 0.31168 0.49249 -0.19500
C 	C 	0.77654 0.33024 0.73018 -0.10200
C 	C 	0.82390 0.44346 0.92943 0.23200
F 	F 	0.84900 0.40305 0.96341 -0.39800
C 	C 	0.83431 0.50361 0.88883 0.21500
F 	F 	0.86927 0.51890 0.88243 -0.41400
H 	H 	0.84972 0.61733 0.81160 0.02600
H 	H 	0.81682 0.61517 0.68741 0.09000
H 	H 	0.75901 0.35727 1.05879 0.07600
H 	H 	0.79962 0.33062 0.99386 0.09400
H 	H 	0.70835 0.31751 0.96003 0.07900
H 	H 	0.70933 0.28244 0.54415 0.06900
H 	H 	0.80359 0.32649 0.48064 0.11000
H 	H 	0.76419 0.29770 0.40921 0.10200
H 	H 	0.80415 0.34441 0.71975 0.09000
C 	C 	0.42547 0.60530 0.50740 -0.15000
C 	C 	0.46277 0.61081 0.55529 -0.03800
C 	C 	0.49214 0.61394 0.46515 0.22100
F 	F 	0.48790 0.61766 0.33144 -0.37300
C 	C 	0.52635 0.61094 0.51186 0.23900
F 	F 	0.55401 0.61417 0.42239 -0.38900
C 	C 	0.53200 0.60135 0.64900 -0.08200
C 	C 	0.56876 0.59023 0.69759 -0.06400
C 	C 	0.58490 0.53618 0.63640 0.10300
C 	C 	0.56621 0.47985 0.63917 -0.05100
C 	C 	0.58099 0.42965 0.58155 -0.01000
C 	C 	0.61531 0.43580 0.52479 -0.07000
C 	C 	0.63449 0.49125 0.52406 0.13700
N 	N 	0.66985 0.49621 0.46970 -0.19300
C 	C 	0.61912 0.54147 0.57840 -0.09600
C 	C 	0.50286 0.59965 0.73941 0.23700
F 	F 	0.50736 0.59101 0.87271 -0.37600
C 	C 	0.46864 0.60471 0.69302 0.22000
F 	F 	0.44105 0.60023 0.78297 -0.38300
H 	H 	0.42025 0.55684 0.48735 0.13000
H 	H 	0.40591 0.61668 0.58553 0.14400
H 	H 	0.56845 0.58112 0.80754 0.10500
H 	H 	0.58532 0.63242 0.67380 0.08800
H 	H 	0.54000 0.47542 0.68544 0.08900
H 	H 	0.62751 0.39721 0.48315 0.06700
H 	H 	0.68461 0.53710 0.46942 0.12700
H 	H 	0.68175 0.45856 0.43177 0.11100
H 	H 	0.63404 0.58428 0.57743 0.09600
C 	C 	0.92498 0.84054 0.89445 -0.11100
C 	C 	0.94329 0.87840 -0.00677 -0.07300
C 	C 	0.97007 0.92158 0.94932 0.26000
F 	F 	0.98061 0.92812 0.81872 -0.36500
C 	C 	0.98590 0.95869 0.03938 0.22400
F 	F 	1.01235 -0.00123 -0.00501 -0.37300
C 	C 	0.97432 0.95490 0.17398 -0.06900
C 	C 	0.99107 -0.00453 0.27101 -0.06500
C 	C 	0.98553 0.06208 0.23414 0.11300
C 	C 	0.01473 0.10215 0.20676 -0.04100
C 	C 	0.01025 0.16479 0.17791 0.00800
C 	C 	-0.02407 0.18719 0.17660 -0.05900
C 	C 	0.94653 0.14750 0.20399 0.14900
N 	N 	0.91175 0.17083 0.20479 -0.19400
C 	C 	0.95142 0.08506 0.23279 -0.10900
C 	C 	0.94739 0.91206 0.21752 0.23400
F 	F 	0.93542 0.90752 0.34645 -0.38100
C 	C 	0.93234 0.87366 0.12843 0.23600
F 	F 	0.90683 0.83213 0.17455 -0.39900
H 	H 	0.90136 0.81573 0.94170 0.01100
H 	H 	0.91574 0.87197 0.81251 0.08800
H 	H 	0.01963 0.98589 0.27383 0.10000
H 	H 	0.98021 -0.01519 0.37392 0.12000
H 	H 	0.04103 0.08445 0.21049 0.09900
H 	H 	-0.02805 0.23549 0.15589 0.09700
H 	H 	0.88969 0.14200 0.22805 0.12100
H 	H 	0.90778 0.21726 0.18361 0.12800
H 	H 	0.92874 0.05449 0.25558 0.10100
C 	C 	0.54743 0.21012 0.94790 -0.09300
C 	C 	0.54391 0.15299 0.04073 -0.08800
C 	C 	0.55106 0.09596 0.99313 0.25600
F 	F 	0.56109 0.09185 0.86385 -0.40300
C 	C 	0.54675 0.04244 0.07628 0.21700
F 	F 	0.55306 0.98886 0.02236 -0.39800
C 	C 	0.53521 0.04499 0.21067 -0.06700
C 	C 	0.52821 0.98953 0.30773 -0.07900
C 	C 	0.53309 0.92787 0.25403 0.10300
C 	C 	0.50344 0.89231 0.22415 -0.04800
C 	C 	0.50697 0.83257 0.18601 -0.00100
C 	C 	0.54093 0.80932 0.17279 -0.06300
C 	C 	0.57087 0.84507 0.19944 0.13600
N 	N 	0.60536 0.82132 0.18496 -0.19500
C 	C 	0.56682 0.90390 0.24209 -0.08900
C 	C 	0.52874 0.10242 0.25852 0.22400
F 	F 	0.51721 0.10663 0.38672 -0.38000
C 	C 	0.53299 0.15575 0.17476 0.24000
F 	F 	0.52542 0.20988 0.22425 -0.38700
H 	H 	0.54286 0.25164 1.00200 0.09000
H 	H 	0.57475 0.21440 0.90479 -0.04800
H 	H 	0.50047 -0.00820 0.34562 0.09600
H 	H 	0.54503 -0.00671 0.39568 0.09200
H 	H 	0.47744 0.91095 0.23419 0.07500
H 	H 	0.54418 0.76333 0.14326 0.09800
H 	H 	0.62764 0.84627 0.21145 0.11700
H 	H 	0.60883 0.77881 0.14698 0.12200
H 	H 	0.58985 0.93108 0.26555 0.08200
C 	C 	0.06664 0.36680 0.48498 -0.14200
C 	C 	0.02896 0.38430 0.46430 -0.04300
C 	C 	0.01996 0.44587 0.45515 0.22800
F 	F 	0.04530 0.49077 0.45676 -0.36600
C 	C 	0.98469 0.46200 0.44746 0.24400
F 	F 	0.97787 0.52226 0.44289 -0.37900
C 	C 	0.95745 0.41638 0.44875 -0.07600
C 	C 	0.91831 0.42962 0.45348 -0.06500
C 	C 	0.90946 0.49538 0.42239 0.10700
C 	C 	0.90503 0.53471 0.52532 -0.04000
C 	C 	0.89742 0.59634 0.49611 0.01400
C 	C 	0.89326 0.61790 0.36319 -0.06700
C 	C 	0.89817 0.57914 0.25986 0.14400
N 	N 	0.89565 0.60217 0.12422 -0.19600
C 	C 	0.90638 0.51811 0.28970 -0.10000
C 	C 	0.96685 0.35480 0.45390 0.23700
F 	F 	0.94154 0.30964 0.45580 -0.39300
C 	C 	1.00220 0.33894 0.46038 0.22600
F 	F 	1.01023 0.27906 0.46741 -0.38400
H 	H 	0.08359 0.40677 0.50668 0.12500
H 	H 	0.06743 0.33342 0.57298 0.11000
H 	H 	0.90719 0.41358 0.55391 0.09000
H 	H 	0.90462 0.40168 0.38153 0.09100
H 	H 	0.90817 0.51750 0.62777 0.10600
H 	H 	0.88749 0.66529 0.33925 0.09300
H 	H 	0.90280 0.57553 0.04657 0.13400
H 	H 	0.88768 0.64655 0.10051 0.07000
H 	H 	0.91046 0.48829 0.20976 0.10200
