data_crystal

_cell_length_a 9.61910
_cell_length_b 21.28900
_cell_length_c 13.44610
_cell_angle_alpha 86.15420
_cell_angle_beta  92.83240
_cell_angle_gamma 90.48210

_symmetry_space_group_name_	'P 1'
_symmetry_space_group_name_H-M	'P 1'

loop_
_symmetry_equiv_pos_as_xyz
  x,y,z

loop_
_atom_site_label
_atom_site_type_symbol
_atom_site_fract_x
_atom_site_fract_y
_atom_site_fract_z
_atom_site_charge
C 	C 	0.87674 0.61435 0.99120 0.02000
N 	N 	0.00162 0.58703 0.98770 -0.07600
C 	C 	0.12179 0.61955 0.99802 0.00900
N 	N 	0.11770 0.68233 0.01045 -0.08900
C 	C 	-0.00892 0.71064 0.01523 0.15800
C 	C 	-0.01891 0.77928 0.01727 -0.07300
C 	C 	-0.01859 0.80758 0.10871 0.13000
I 	I 	0.03588 0.75328 0.24438 -0.07700
C 	C 	-0.06151 0.87059 0.11072 -0.18100
C 	C 	0.88949 0.90400 0.02173 0.21100
I 	I 	0.77742 -0.00940 0.02582 -0.34200
C 	C 	-0.09051 0.87880 -0.07079 0.01200
N 	N 	0.88927 0.91745 0.83810 -0.07600
C 	C 	-0.04888 0.81552 -0.07303 0.07900
I 	I 	-0.03885 0.77244 0.78769 -0.07500
N 	N 	0.87064 0.67660 0.00547 -0.09100
H 	H 	0.85232 -0.03659 0.83604 -0.03400
H 	H 	-0.07725 0.90302 0.77116 0.10100
C 	C 	0.62736 0.89228 0.59876 0.05100
N 	N 	0.50073 0.91926 0.59880 -0.05900
C 	C 	0.38317 0.88403 0.60656 0.04800
N 	N 	0.39350 0.82026 0.61158 -0.10500
C 	C 	0.52048 0.79240 0.61471 0.16200
C 	C 	0.53016 0.72541 0.59559 -0.06600
C 	C 	0.53068 0.67842 0.67440 0.11800
I 	I 	0.49951 0.70434 0.82276 -0.07900
C 	C 	0.55831 0.61544 0.65521 -0.15800
C 	C 	0.59427 0.60078 0.55842 0.08700
I 	I 	0.67160 0.51001 0.52956 -0.09500
C 	C 	0.57856 0.64670 0.47792 0.03100
N 	N 	0.59288 0.62999 0.37710 -0.17700
C 	C 	0.54716 0.70915 0.49701 0.05300
I 	I 	0.53070 0.78068 0.37643 -0.05800
N 	N 	0.63638 0.82868 0.60512 -0.10600
H 	H 	0.62695 0.58623 0.35883 0.09500
H 	H 	0.55684 0.65880 0.31587 0.10300
C 	C 	0.13199 0.40460 1.12105 0.00700
N 	N 	1.00444 0.43136 1.11863 -0.07800
C 	C 	0.88704 0.39573 1.12567 0.02000
N 	N 	0.89862 0.33200 0.13161 -0.09600
C 	C 	1.02572 0.30442 0.13548 0.16100
C 	C 	1.03662 0.23824 0.11146 -0.06200
C 	C 	1.03085 0.18835 0.18531 0.11100
I 	I 	0.99231 0.20836 0.33503 -0.08200
C 	C 	0.05775 0.12610 0.16068 -0.14600
C 	C 	0.09866 0.11519 0.06365 -0.03700
I 	I 	0.16974 1.02564 0.02387 0.17000
C 	C 	1.08948 0.16396 -0.01161 0.06200
N 	N 	1.10721 0.15069 0.88679 -0.28800
C 	C 	1.05762 0.22528 0.01169 0.04800
I 	I 	1.04941 0.29869 0.89452 -0.10400
N 	N 	0.14127 0.34104 0.12798 -0.09600
H 	H 	0.19295 1.12566 0.86647 0.25000
H 	H 	1.03704 0.16848 0.83079 0.10000
C 	C 	0.37832 0.10669 0.50590 -0.00300
N 	N 	0.50288 0.07955 0.49872 -0.09600
C 	C 	0.62337 0.11165 0.51060 0.00100
N 	N 	0.61991 0.17386 0.52754 -0.10000
C 	C 	0.49388 0.20187 0.53617 0.14600
C 	C 	0.48406 0.27041 0.53870 -0.06700
C 	C 	0.47841 0.29842 0.63035 0.11600
I 	I 	0.52331 0.24392 0.76735 -0.13200
C 	C 	0.43425 0.36129 0.63095 -0.15400
C 	C 	0.39045 0.39474 0.54063 0.08400
I 	I 	0.27746 0.48131 0.54018 -0.11200
C 	C 	0.41934 0.37011 0.44924 0.03100
N 	N 	0.40769 0.40900 0.35738 -0.17500
C 	C 	0.46300 0.30722 0.44813 0.05300
I 	I 	0.48396 0.26595 0.30894 -0.06800
N 	N 	0.37312 0.16829 0.52479 -0.10400
H 	H 	0.35163 0.45084 0.35016 0.10600
H 	H 	0.47503 0.40217 0.30077 0.10100
Sc	Sc	0.00404 -0.00211 0.54374 2.30900
Sc	Sc	0.84424 -0.01442 0.35114 2.31400
Sc	Sc	0.14243 -0.03725 0.35867 2.31400
C 	C 	0.25513 0.06875 0.48147 0.43100
C 	C 	0.74681 0.07904 0.48198 0.43600
C 	C 	1.03984 0.07223 0.23444 0.48800
C 	C 	0.73763 0.92849 0.55032 0.42600
C 	C 	0.26014 0.91255 0.55569 0.41200
C 	C 	0.95501 0.90387 0.20320 0.48500
O 	O 	0.14836 0.06901 0.53439 -0.71200
O 	O 	0.72900 0.05288 0.39991 -0.70400
O 	O 	0.13857 0.03360 0.25142 -0.74400
O 	O 	0.84219 0.94856 0.60306 -0.53600
O 	O 	0.25916 0.91046 0.45989 -0.56000
O 	O 	0.84676 0.93028 0.23450 -0.58000
O 	O 	0.17125 0.94332 0.60383 -0.53500
O 	O 	0.72310 0.93771 0.45433 -0.51100
O 	O 	0.07889 0.90773 0.24509 -0.58900
O 	O 	0.85307 0.06845 0.54306 -0.68000
O 	O 	0.26770 0.03143 0.41178 -0.70600
O 	O 	0.92470 0.06474 0.27724 -0.72200
O 	O 	-0.01463 -0.05241 0.43261 -1.54600
Sc	Sc	0.50588 0.50814 0.04891 2.32600
Sc	Sc	0.34537 0.48409 0.86177 2.33000
Sc	Sc	0.64182 0.46014 0.87067 2.33100
C 	C 	0.75421 0.57456 0.97360 0.41800
C 	C 	0.24598 0.58520 0.97521 0.42400
C 	C 	0.54151 0.56449 0.73437 0.48700
C 	C 	0.24141 0.43937 1.06903 0.40200
C 	C 	0.76399 0.42265 1.07178 0.39700
C 	C 	0.45065 0.39564 0.72252 0.46200
O 	O 	0.64574 0.57962 0.02348 -0.65100
O 	O 	0.22677 0.55283 0.89993 -0.65900
O 	O 	0.63997 0.52607 0.75543 -0.67100
O 	O 	0.34631 0.46248 0.11835 -0.60200
O 	O 	0.75941 0.41328 0.97793 -0.62500
O 	O 	0.34321 0.42382 0.75113 -0.66500
O 	O 	0.67767 0.45801 0.11442 -0.59700
O 	O 	0.22694 0.44281 0.97270 -0.59300
O 	O 	0.57419 0.39943 0.76533 -0.64500
O 	O 	0.35412 0.57932 0.03598 -0.61500
O 	O 	0.76889 0.53109 0.91403 -0.64400
O 	O 	0.42734 0.55971 0.77903 -0.69900
O 	O 	0.48603 0.45017 0.94759 -1.41900
