data_crystal

_cell_length_a 21.45660
_cell_length_b 15.39130
_cell_length_c 9.39370
_cell_angle_alpha 90.23860
_cell_angle_beta  98.47380
_cell_angle_gamma 127.11980

_symmetry_space_group_name_	'P 1'
_symmetry_space_group_name_H-M	'P 1'

loop_
_symmetry_equiv_pos_as_xyz
  x,y,z

loop_
_atom_site_label
_atom_site_type_symbol
_atom_site_fract_x
_atom_site_fract_y
_atom_site_fract_z
_atom_site_charge
Ce	Ce	0.93087 0.04038 0.45270 2.10500
Ce	Ce	0.02901 -0.02946 0.16064 2.12500
C 	C 	0.94319 0.20907 0.59940 0.23200
C 	C 	0.21872 0.16576 0.25427 0.38400
H 	H 	0.86920 1.23492 0.04878 0.22500
C 	C 	-0.01817 -0.02434 0.86657 0.12700
C 	C 	0.87018 0.85733 0.19052 0.19900
O 	O 	0.06043 0.88244 0.31985 -0.38700
O 	O 	0.07192 0.87507 1.09869 -0.32800
O 	O 	0.88681 1.23124 0.14816 -0.28700
O 	O 	0.90262 1.14999 0.32662 -0.22900
O 	O 	0.93526 0.04576 0.69537 -0.41200
O 	O 	-0.03613 -0.05185 0.60092 -0.50400
O 	O 	0.06391 0.17822 0.46538 -0.46000
O 	O 	-0.00355 0.07759 0.25743 -0.58500
H 	H 	0.25575 0.15329 0.45292 0.18300
O 	O 	0.93987 0.19870 0.46336 -0.41300
O 	O 	0.93438 0.12965 0.65981 -0.34500
O 	O 	0.21144 0.12440 0.37356 -0.47900
O 	O 	0.15716 0.12399 0.15601 -0.54500
O 	O 	-0.01548 -0.09843 0.91080 -0.41500
O 	O 	1.00325 1.04511 0.96856 -0.23700
O 	O 	0.90019 0.81693 0.15471 -0.43400
O 	O 	0.92563 0.97094 0.22210 -0.42500
C 	C 	0.07794 0.84606 0.22320 0.25400
C 	C 	0.87563 1.14540 0.19299 0.34400
C 	C 	-0.04150 -0.01354 0.71667 0.22500
C 	C 	0.06516 0.17267 0.33672 0.23900
C 	C 	0.83195 1.04288 0.09328 -0.17600
O 	O 	0.77641 1.03967 -0.01572 -0.13300
C 	C 	0.69328 0.96528 -0.02770 0.09800
C 	C 	0.65394 0.88197 0.06290 -0.06000
C 	C 	0.57115 0.80609 0.03555 -0.00600
C 	C 	0.52588 0.81277 -0.07953 -0.03900
C 	C 	0.56288 0.89936 -0.16497 -0.00200
C 	C 	0.51738 0.91250 -0.27392 0.05300
O 	O 	0.43456 0.83605 -0.30296 -0.19200
C 	C 	0.39366 0.87482 -0.25903 -0.07700
C 	C 	0.35618 0.81709 -0.13432 0.09200
C 	C 	0.37419 0.87764 -0.00319 -0.11900
C 	C 	0.34208 0.82439 0.11469 0.11200
C 	C 	0.29387 0.70972 0.10476 -0.31500
Si	Si	0.24906 0.64398 0.26135 0.84800
C 	C 	0.33244 0.71690 0.41928 -0.50600
C 	C 	0.20404 0.49581 0.24846 -0.22000
C 	C 	0.23900 0.45949 0.34263 0.01100
C 	C 	0.19790 0.34781 0.35466 0.01700
C 	C 	0.12144 0.27195 0.27395 -0.16100
C 	C 	0.09109 0.30645 1.16549 0.13800
C 	C 	0.13213 0.41848 0.15331 -0.11000
C 	C 	0.17782 0.67480 0.26959 -0.32200
C 	C 	0.12845 0.65835 1.14017 0.12600
C 	C 	0.09192 0.70884 1.12897 -0.00800
C 	C 	0.10322 0.77581 0.24780 -0.05000
C 	C 	0.14655 0.78410 0.38160 -0.04600
C 	C 	0.18419 0.73429 0.39205 0.08300
C 	C 	0.27614 0.64831 -0.02552 0.09500
C 	C 	0.30636 0.70183 -0.14539 -0.12600
C 	C 	0.55500 1.00215 -0.35342 0.16500
C 	C 	0.63740 0.08053 0.67711 -0.14900
C 	C 	0.68335 0.06760 0.78265 -0.09100
C 	C 	0.64701 0.97689 -0.13745 0.07600
H 	H 	0.87460 1.04337 1.03892 0.15900
H 	H 	0.80575 0.97595 0.16062 0.04200
H 	H 	0.68473 0.87403 0.15663 0.05600
H 	H 	0.54183 0.74197 0.10500 0.02600
H 	H 	0.46179 0.75201 -0.09787 0.04400
H 	H 	0.43329 0.96548 -0.23023 0.07900
H 	H 	0.34641 0.85591 0.65032 0.08800
H 	H 	0.41230 0.96607 0.00833 0.10400
H 	H 	0.35480 0.87327 0.21331 0.00800
H 	H 	0.37919 0.70923 0.40276 0.14300
H 	H 	0.35852 0.80487 0.43048 0.15400
H 	H 	0.30888 0.67980 0.51739 0.14300
H 	H 	0.29550 0.51688 0.41468 0.01200
H 	H 	0.22176 0.32071 0.43676 0.03300
H 	H 	0.03166 0.24863 1.10227 0.01300
H 	H 	0.10485 0.44435 1.07746 0.07900
H 	H 	0.12310 0.61378 1.04387 0.00500
H 	H 	0.05854 0.70075 1.02455 0.07800
H 	H 	0.15596 0.83506 0.47468 0.08500
H 	H 	0.22153 0.74722 0.49323 0.00400
H 	H 	0.23796 0.55954 -0.03565 -0.02200
H 	H 	0.29174 0.65350 -0.24579 0.03900
H 	H 	0.51991 0.01206 0.56292 -0.08000
H 	H 	0.66572 0.15169 0.61861 0.07100
H 	H 	0.74738 0.12997 0.80288 0.05100
C 	C 	0.95712 0.30480 0.67914 -0.06400
O 	O 	0.88811 0.30085 0.64876 -0.19200
C 	C 	0.86980 0.31810 0.50706 0.12200
C 	C 	0.91796 0.42311 0.46256 -0.08600
C 	C 	0.89639 0.44341 0.32678 -0.00700
C 	C 	0.82456 0.36104 0.23646 -0.04300
C 	C 	0.77388 0.25588 0.27989 -0.02500
C 	C 	0.69947 0.17303 0.19219 0.10200
O 	O 	0.67436 0.19799 0.06220 -0.22400
C 	C 	0.59132 0.14908 0.02194 0.01700
C 	C 	0.57853 0.23491 0.00787 0.02700
C 	C 	0.50293 0.20315 -0.05462 -0.10500
C 	C 	0.48690 0.27862 -0.05438 0.05400
C 	C 	0.54657 0.38736 0.00654 -0.26000
Si	Si	0.52218 0.48371 0.01984 0.70300
C 	C 	0.48167 0.48619 0.82971 -0.41100
C 	C 	0.61824 0.62136 0.08993 -0.22100
C 	C 	0.66156 0.68828 -0.01236 -0.03200
C 	C 	0.74299 0.77172 0.02608 -0.00900
C 	C 	0.78306 0.79171 0.16835 -0.08300
C 	C 	0.73952 0.72994 0.27409 -0.05300
C 	C 	0.65705 0.64537 0.23512 0.03700
C 	C 	0.44009 0.41943 0.12629 -0.21000
C 	C 	0.44014 0.36137 0.24097 0.01500
C 	C 	0.36953 0.28370 0.29054 -0.01800
C 	C 	0.29726 0.26192 0.22492 -0.12300
C 	C 	0.29909 0.32658 0.11747 0.00800
C 	C 	0.36981 0.40501 0.06970 -0.05200
C 	C 	0.62307 0.42047 0.06297 0.05900
C 	C 	0.63871 0.34484 0.06516 -0.08700
C 	C 	0.65371 0.06658 0.23439 -0.10700
C 	C 	0.68014 0.04354 0.36236 -0.03300
C 	C 	0.75144 0.12640 0.45254 -0.05700
C 	C 	0.79821 0.23362 0.41457 -0.01900
H 	H 	0.96988 0.30110 0.79701 0.04700
H 	H 	1.01039 0.38191 0.65120 0.04700
H 	H 	0.97212 0.48924 0.53382 0.05600
H 	H 	0.93466 0.52402 0.29226 0.02300
H 	H 	0.80972 0.37956 0.13181 0.03800
H 	H 	0.56805 0.09824 -0.08370 -0.01400
H 	H 	0.55537 0.09606 0.10122 -0.00500
H 	H 	0.45575 0.11959 -0.10140 -0.00400
H 	H 	0.42749 0.25142 -0.09910 -0.02800
H 	H 	0.52217 0.49951 0.75668 0.11400
H 	H 	0.42251 0.40640 0.79097 0.11200
H 	H 	0.47576 0.55303 0.82747 0.11600
H 	H 	0.63422 0.67140 0.87470 0.05700
H 	H 	0.77587 0.81709 -0.05750 0.03400
H 	H 	0.77002 0.74182 0.38340 0.01800
H 	H 	0.62544 0.59249 0.31480 0.00600
H 	H 	0.49339 0.36990 0.28463 0.00800
H 	H 	0.37084 0.23517 0.37227 0.01100
H 	H 	0.24501 0.31357 0.06625 0.02300
H 	H 	0.36789 0.44882 0.98153 0.06000
H 	H 	0.67093 0.50393 0.10897 0.00800
H 	H 	0.69731 0.37239 0.11550 0.06100
H 	H 	0.59827 0.00007 0.16668 0.01100
H 	H 	0.64491 -0.03902 0.39241 -0.02400
H 	H 	0.77025 0.10589 0.55134 0.02500
