data_crystal

_audit_creation_method 'AiiDA-DDEC plugin'

_cell_length_a        19.90377
_cell_length_b         6.67478
_cell_length_c        16.28877

_cell_angle_alpha     89.97283
_cell_angle_beta     89.97232
_cell_angle_gamma     90.08095

_symmetry_space_group_name_Hall 'P 1'
_symmetry_space_group_name_H-M  'P 1'

loop_
_symmetry_equiv_pos_as_xyz
 'x,y,z'

loop_
_atom_site_label
_atom_site_type_symbol
_atom_site_fract_x
_atom_site_fract_y
_atom_site_fract_z
_atom_site_charge
Al         Al      0.24331   0.74972   0.24830   1.68969
Al         Al      0.25561   0.25001   0.24827   1.69264
Al         Al      0.75586   0.24682   0.74834   1.69367
Al         Al      0.74393   0.74714   0.74810   1.69192
H          H       0.43902   0.24452   0.38411   0.12995
H          H       0.06012   0.75439   0.38414   0.13069
H          H       0.05887   0.74540   0.11403   0.13091
H          H       0.44077   0.25374   0.11379   0.13006
H          H       0.55952   0.75290   0.61380   0.12693
H          H       0.94011   0.24408   0.61368   0.13007
H          H       0.93987   0.25350   0.88331   0.13038
H          H       0.55989   0.74135   0.88469   0.12957
H          H       0.36288   0.82805   0.44473   0.12127
H          H       0.13628   0.17021   0.44381   0.12550
H          H       0.13567   0.32903   0.05359   0.12484
H          H       0.36378   0.67005   0.05425   0.12432
H          H       0.63484   0.16807   0.55358   0.12468
H          H       0.86420   0.82865   0.55397   0.12320
H          H       0.86318   0.67004   0.94408   0.12180
H          H       0.63762   0.32415   0.94427   0.12195
H          H       0.45639   0.88054   0.54400   0.11634
H          H       0.04317   0.11809   0.54429   0.11646
H          H       0.04250   0.38151   0.95365   0.11668
H          H       0.45694   0.61661   0.95445   0.11579
H          H       0.54157   0.11729   0.45370   0.11672
H          H       0.95806   0.88210   0.45476   0.11391
H          H       0.95589   0.61925   0.04493   0.11709
H          H       0.54441   0.37898   0.04368   0.11426
H          H       0.75209   0.49729   0.85668   0.43796
H          H       0.24900   0.50001   0.13978   0.43874
H          H       0.74916  -0.00212   0.63951   0.43888
H          H       0.25210  -0.00102   0.35664   0.43888
C          C       0.33956   0.50747   0.34889   0.63695
C          C       0.15977   0.49212   0.34887   0.63636
C          C       0.15889   0.00872   0.14847   0.63579
C          C       0.34012   0.99141   0.14826   0.63566
C          C       0.65873   0.48884   0.64907   0.63628
C          C       0.83955   0.50638   0.64754   0.63562
C          C       0.84030   0.98926   0.84827   0.63598
C          C       0.66017   0.00299   0.84903   0.63794
C          C       0.39531   0.53122   0.40945  -0.04715
C          C       0.10384   0.46729   0.40914  -0.04520
C          C       0.10286   0.03232   0.08853  -0.04276
C          C       0.39661   0.96729   0.08870  -0.04601
C          C       0.60282   0.46579   0.58859  -0.04448
C          C       0.89625   0.53095   0.58833  -0.04436
C          C       0.89607   0.96633   0.90871  -0.04637
C          C       0.60442   0.02739   0.90955  -0.04590
C          C       0.40040   0.71264   0.45480  -0.10202
C          C       0.09884   0.28560   0.45442  -0.10456
C          C       0.09800   0.21392   0.04327  -0.10486
C          C       0.40146   0.78515   0.04381  -0.10347
C          C       0.59757   0.28415   0.54335  -0.10413
C          C       0.90167   0.71330   0.54355  -0.10340
C          C       0.90077   0.78538   0.95439  -0.10270
C          C       0.59982   0.20939   0.95460  -0.10119
C          C       0.45218   0.74118   0.50961  -0.13848
C          C       0.04727   0.25726   0.50966  -0.13970
C          C       0.04645   0.24236   0.98824  -0.14009
C          C       0.45311   0.75583   0.98896  -0.13861
C          C       0.54591   0.25628   0.48833  -0.13958
C          C       0.95358   0.74238   0.48893  -0.13680
C          C       0.95209   0.75767   0.00983  -0.13959
C          C       0.54818   0.23927   0.00950  -0.13802
C          C       0.49655   0.40705   0.47613   0.07043
C          C       0.00289   0.59163   0.47644   0.07224
C          C       0.00164   0.90825   0.02194   0.07221
C          C       0.49829   0.08971   0.02206   0.07223
C          C       0.50167   0.59069   0.52180   0.07215
C          C       0.99783   0.40777   0.52206   0.07141
C          C       0.99696   0.09161   0.97594   0.07233
C          C       0.50288   0.90569   0.97658   0.07128
C          C       0.44265   0.38134   0.42007  -0.14314
C          C       0.05659   0.61732   0.42004  -0.14439
C          C       0.05540   0.88243   0.07812  -0.14627
C          C       0.44433   0.11659   0.07804  -0.14390
C          C       0.55564   0.61612   0.57784  -0.14177
C          C       0.94377   0.38141   0.57796  -0.14428
C          C       0.94338   0.11677   0.91942  -0.14341
C          C       0.55665   0.87856   0.92044  -0.14311
O          O       0.30840   0.66769   0.32967  -0.60970
O          O       0.19172   0.33305   0.33020  -0.60971
O          O       0.18947   0.16998   0.16804  -0.60863
O          O       0.30927   0.83014   0.16740  -0.60862
O          O       0.68818   0.32687   0.66991  -0.60844
O          O       0.80826   0.66661   0.66638  -0.60885
O          O       0.80879   0.82896   0.82937  -0.61049
O          O       0.69123   0.16340   0.82970  -0.61042
O          O       0.32686   0.33219   0.32174  -0.59858
O          O       0.17190   0.66773   0.32158  -0.59763
O          O       0.17230   0.83271   0.17440  -0.59717
O          O       0.32646   0.16719   0.17423  -0.59980
O          O       0.67313   0.66500   0.67424  -0.59913
O          O       0.82600   0.33077   0.67375  -0.59844
O          O       0.82775   0.16465   0.82123  -0.59673
O          O       0.67308   0.82768   0.82207  -0.59938
O          O       0.24925   0.49997   0.19919  -1.00657
O          O       0.24919  -0.00019   0.29734  -1.00767
O          O       0.75070   0.49642   0.79729  -1.00749
O          O       0.75059  -0.00207   0.69891  -1.00745

