data_crystal

_cell_length_a 11.07180
_cell_length_b 10.71850
_cell_length_c 15.14330
_cell_angle_alpha 90.00000
_cell_angle_beta  91.81700
_cell_angle_gamma 90.00000

_symmetry_space_group_name_	'P 1'
_symmetry_space_group_name_H-M	'P 1'

loop_
_symmetry_equiv_pos_as_xyz
  x,y,z

loop_
_atom_site_label
_atom_site_type_symbol
_atom_site_fract_x
_atom_site_fract_y
_atom_site_fract_z
_atom_site_charge
Zn	Zn	0.73613 0.46774 0.92387 1.18400
C 	C 	0.57880 0.92950 0.15710 -0.12700
H 	H 	0.55360 0.00100 0.11950 0.06500
H 	H 	0.50600 0.89870 0.18660 0.06900
O 	O 	0.73190 0.32420 0.00528 -0.45100
O 	O 	0.90800 0.40600 0.04721 -0.35300
O 	O 	0.58790 0.46810 0.84789 -0.45900
O 	O 	0.65520 0.29620 0.78475 -0.33500
N 	N 	0.66430 0.97410 0.22447 -0.17800
H 	H 	0.65580 0.95010 0.27950 0.11400
N 	N 	0.69510 0.62520 0.99366 -0.27700
C 	C 	0.77390 0.68340 0.04930 0.09300
H 	H 	0.85510 0.65460 0.05280 -0.01800
C 	C 	0.74240 0.78230 0.10130 -0.17100
H 	H 	0.80130 0.82050 0.13940 0.09500
C 	C 	0.62460 0.82680 0.09810 0.13400
C 	C 	0.54390 0.76820 0.04000 -0.18000
H 	H 	0.46280 0.79710 0.03440 0.09600
C 	C 	0.58000 0.66940 0.99070 0.09000
H 	H 	0.52220 0.62970 0.95250 -0.01000
C 	C 	0.82880 0.32550 0.05400 0.30100
C 	C 	0.84180 0.22470 0.12320 -0.05500
C 	C 	0.94970 0.21610 0.17240 -0.00200
H 	H 	0.01470 0.27080 0.16050 0.03100
C 	C 	0.96210 0.12750 0.23864 -0.05300
C 	C 	0.74790 0.14350 0.13851 -0.07600
H 	H 	0.67530 0.14890 0.10350 0.06800
C 	C 	0.75880 0.05320 0.20510 0.09400
C 	C 	0.57830 0.37710 0.79320 0.32000
C 	C 	0.86750 0.04750 0.25440 -0.07500
H 	H 	0.87660 0.98690 0.29990 0.06700
Zn	Zn	0.23613 0.03226 0.42387 1.18600
C 	C 	0.07880 0.57050 0.65710 -0.12400
H 	H 	0.05360 0.49900 0.61950 0.06400
H 	H 	0.00600 0.60130 0.68660 0.06900
O 	O 	0.23190 0.17580 0.50528 -0.45100
O 	O 	0.40800 0.09400 0.54721 -0.35400
O 	O 	0.08790 0.03190 0.34789 -0.46000
O 	O 	0.15520 0.20380 0.28475 -0.33500
N 	N 	0.16430 0.52590 0.72447 -0.17900
H 	H 	0.15580 0.54990 0.77950 0.11400
N 	N 	0.19510 0.87480 0.49366 -0.27400
C 	C 	0.27390 0.81660 0.54930 0.09100
H 	H 	0.35510 0.84540 0.55280 -0.01800
C 	C 	0.24240 0.71770 0.60130 -0.16900
H 	H 	0.30130 0.67950 0.63940 0.09400
C 	C 	0.12460 0.67320 0.59810 0.13200
C 	C 	0.04390 0.73180 0.54000 -0.17600
H 	H 	0.96280 0.70290 0.53440 0.09400
C 	C 	0.08000 0.83060 0.49070 0.08900
H 	H 	0.02220 0.87030 0.45250 -0.00900
C 	C 	0.32880 0.17450 0.55400 0.29900
C 	C 	0.34180 0.27530 0.62320 -0.05200
C 	C 	0.44970 0.28390 0.67240 -0.01100
H 	H 	0.51470 0.22920 0.66050 0.03700
C 	C 	0.46210 0.37250 0.73864 -0.05100
C 	C 	0.24790 0.35650 0.63851 -0.07800
H 	H 	0.17530 0.35110 0.60350 0.06800
C 	C 	0.25880 0.44680 0.70510 0.09500
C 	C 	0.07830 0.12290 0.29320 0.31800
C 	C 	0.36750 0.45250 0.75440 -0.08100
H 	H 	0.37660 0.51310 0.79990 0.07000
Zn	Zn	0.76387 0.96774 0.57613 1.18600
C 	C 	0.92120 0.42950 0.34290 -0.12400
H 	H 	0.94640 0.50100 0.38050 0.06400
H 	H 	0.99400 0.39870 0.31340 0.06900
O 	O 	0.76810 0.82420 0.49472 -0.45100
O 	O 	0.59200 0.90600 0.45279 -0.35400
O 	O 	0.91210 0.96810 0.65211 -0.46000
O 	O 	0.84480 0.79620 0.71525 -0.33500
N 	N 	0.83570 0.47410 0.27553 -0.17900
H 	H 	0.84420 0.45010 0.22050 0.11400
N 	N 	0.80490 0.12520 0.50634 -0.27400
C 	C 	0.72610 0.18340 0.45070 0.09100
H 	H 	0.64490 0.15460 0.44720 -0.01800
C 	C 	0.75760 0.28230 0.39870 -0.16900
H 	H 	0.69870 0.32050 0.36060 0.09400
C 	C 	0.87540 0.32680 0.40190 0.13200
C 	C 	0.95610 0.26820 0.46000 -0.17600
H 	H 	0.03720 0.29710 0.46560 0.09400
C 	C 	0.92000 0.16940 0.50930 0.08900
H 	H 	0.97780 0.12970 0.54750 -0.00900
C 	C 	0.67120 0.82550 0.44600 0.29900
C 	C 	0.65820 0.72470 0.37680 -0.05200
C 	C 	0.55030 0.71610 0.32760 -0.01100
H 	H 	0.48530 0.77080 0.33950 0.03700
C 	C 	0.53790 0.62750 0.26136 -0.05100
C 	C 	0.75210 0.64350 0.36149 -0.07800
H 	H 	0.82470 0.64890 0.39650 0.06800
C 	C 	0.74120 0.55320 0.29490 0.09500
C 	C 	0.92170 0.87710 0.70680 0.31800
C 	C 	0.63250 0.54750 0.24560 -0.08100
H 	H 	0.62340 0.48690 0.20010 0.07000
Zn	Zn	0.26387 0.53226 0.07613 1.18500
C 	C 	0.42120 0.07050 0.84290 -0.12600
H 	H 	0.44640 0.99900 0.88050 0.06500
H 	H 	0.49400 0.10130 0.81340 0.06900
O 	O 	0.26810 0.67580 0.99472 -0.45100
O 	O 	0.09200 0.59400 0.95279 -0.35300
O 	O 	0.41210 0.53190 0.15211 -0.45900
O 	O 	0.34480 0.70380 0.21525 -0.33500
N 	N 	0.33570 0.02590 0.77553 -0.17800
H 	H 	0.34420 0.04990 0.72050 0.11400
N 	N 	0.30490 0.37480 0.00634 -0.27700
C 	C 	0.22610 0.31660 0.95070 0.09300
H 	H 	0.14490 0.34540 0.94720 -0.01800
C 	C 	0.25760 0.21770 0.89870 -0.17100
H 	H 	0.19870 0.17950 0.86060 0.09500
C 	C 	0.37540 0.17320 0.90190 0.13400
C 	C 	0.45610 0.23180 0.96000 -0.18000
H 	H 	0.53720 0.20290 0.96560 0.09600
C 	C 	0.42000 0.33060 0.00930 0.09000
H 	H 	0.47780 0.37030 0.04750 -0.01000
C 	C 	0.17120 0.67450 0.94600 0.30100
C 	C 	0.15820 0.77530 0.87680 -0.05500
C 	C 	0.05030 0.78390 0.82760 -0.00200
H 	H 	0.98530 0.72920 0.83950 0.03100
C 	C 	0.03790 0.87250 0.76136 -0.05300
C 	C 	0.25210 0.85650 0.86149 -0.07600
H 	H 	0.32470 0.85110 0.89650 0.06800
C 	C 	0.24120 0.94680 0.79490 0.09400
C 	C 	0.42170 0.62290 0.20680 0.32000
C 	C 	0.13250 0.95250 0.74560 -0.07500
H 	H 	0.12340 0.01310 0.70010 0.06700
