data_crystal

_cell_length_a 14.77310
_cell_length_b 18.93940
_cell_length_c 8.75620
_cell_angle_alpha 90.00000
_cell_angle_beta  122.55100
_cell_angle_gamma 90.00000

_symmetry_space_group_name_	'P 1'
_symmetry_space_group_name_H-M	'P 1'

loop_
_symmetry_equiv_pos_as_xyz
  x,y,z

loop_
_atom_site_label
_atom_site_type_symbol
_atom_site_fract_x
_atom_site_fract_y
_atom_site_fract_z
_atom_site_charge
N 	N 	0.82850 0.40150 0.98080 -0.26800
N 	N 	0.54580 0.44420 0.33710 -0.12600
C 	C 	0.63760 0.40890 0.64110 -0.01200
C 	C 	0.74750 0.35790 0.93460 0.01600
H 	H 	0.75600 0.32400 0.01830 -0.03700
C 	C 	0.53940 0.40890 0.45460 0.18200
C 	C 	0.65080 0.36010 0.76840 -0.09200
H 	H 	0.59560 0.32900 0.74320 0.00900
C 	C 	0.81350 0.44970 0.85700 0.04500
H 	H 	0.86850 0.48150 0.88640 -0.08000
C 	C 	0.72090 0.45420 0.68940 -0.11700
H 	H 	0.71460 0.48830 0.60770 0.05200
C 	C 	0.44470 0.36580 0.41500 -0.59700
H 	H 	0.45850 0.34410 0.52460 0.17500
H 	H 	0.38260 0.39560 0.36650 0.19400
H 	H 	0.43190 0.32980 0.32820 0.17000
N 	N 	0.17150 0.40150 0.51920 -0.29600
N 	N 	0.45420 0.44420 0.16290 -0.12600
C 	C 	0.36240 0.40890 0.85890 -0.01500
C 	C 	0.25250 0.35790 0.56540 0.03000
H 	H 	0.24400 0.32400 0.48170 -0.06200
C 	C 	0.46060 0.40890 0.04540 0.18100
C 	C 	0.34920 0.36010 0.73160 -0.10700
H 	H 	0.40440 0.32900 0.75680 0.01200
C 	C 	0.18650 0.44970 0.64300 0.04400
H 	H 	0.13150 0.48150 0.61360 -0.11600
C 	C 	0.27910 0.45420 0.81060 -0.13000
H 	H 	0.28540 0.48830 0.89230 0.04500
C 	C 	0.55530 0.36580 0.08500 -0.57200
H 	H 	0.54150 0.34410 0.97540 0.16200
H 	H 	0.61740 0.39560 0.13350 0.19200
H 	H 	0.56810 0.32980 0.17180 0.16600
Cd	Cd	0.00000 0.39032 0.25000 1.06900
N 	N 	0.32850 0.90150 0.98080 -0.29200
N 	N 	0.04580 0.94420 0.33710 -0.13600
C 	C 	0.13760 0.90890 0.64110 0.02600
C 	C 	0.24750 0.85790 0.93460 0.02400
H 	H 	0.25600 0.82400 0.01830 -0.05300
C 	C 	0.03940 0.90890 0.45460 0.04500
C 	C 	0.15080 0.86010 0.76840 -0.13000
H 	H 	0.09560 0.82900 0.74320 -0.00100
C 	C 	0.31350 0.94970 0.85700 0.05800
H 	H 	0.36850 0.98150 0.88640 -0.10700
C 	C 	0.22090 0.95420 0.68940 -0.15700
H 	H 	0.21460 0.98830 0.60770 0.05600
C 	C 	0.94470 0.86580 0.41500 -0.37000
H 	H 	0.95850 0.84410 0.52460 0.13700
H 	H 	0.88260 0.89560 0.36650 0.14000
H 	H 	0.93190 0.82980 0.32820 0.12600
N 	N 	0.67150 0.90150 0.51920 -0.28200
N 	N 	0.95420 0.94420 0.16290 -0.11500
C 	C 	0.86240 0.90890 0.85890 -0.04700
C 	C 	0.75250 0.85790 0.56540 0.02500
H 	H 	0.74400 0.82400 0.48170 -0.04900
C 	C 	0.96060 0.90890 0.04540 0.31100
C 	C 	0.84920 0.86010 0.73160 -0.07500
H 	H 	0.90440 0.82900 0.75680 0.02600
C 	C 	0.68650 0.94970 0.64300 0.03400
H 	H 	0.63150 0.98150 0.61360 -0.09500
C 	C 	0.77910 0.95420 0.81060 -0.09500
H 	H 	0.78540 0.98830 0.89230 0.04200
C 	C 	0.05530 0.86580 0.08500 -0.78600
H 	H 	0.04150 0.84410 0.97540 0.19800
H 	H 	0.11740 0.89560 0.13350 0.24200
H 	H 	0.06810 0.82980 0.17180 0.20700
Cd	Cd	0.50000 0.89032 0.25000 1.09400
N 	N 	0.17150 0.59850 0.01920 -0.29900
N 	N 	0.45420 0.55580 0.66290 -0.12700
C 	C 	0.36240 0.59110 0.35890 0.00000
C 	C 	0.25250 0.64210 0.06540 0.05500
H 	H 	0.24400 0.67600 0.98170 -0.07800
C 	C 	0.46060 0.59110 0.54540 0.17500
C 	C 	0.34920 0.63990 0.23160 -0.12300
H 	H 	0.40440 0.67100 0.25680 0.01900
C 	C 	0.18650 0.55030 0.14300 0.05100
H 	H 	0.13150 0.51850 0.11360 -0.11500
C 	C 	0.27910 0.54580 0.31060 -0.13900
H 	H 	0.28540 0.51170 0.39230 0.05200
C 	C 	0.55530 0.63420 0.58500 -0.59700
H 	H 	0.54150 0.65590 0.47540 0.17500
H 	H 	0.61740 0.60440 0.63350 0.19800
H 	H 	0.56810 0.67020 0.67180 0.17100
N 	N 	0.82850 0.59850 0.48080 -0.27100
N 	N 	0.54580 0.55580 0.83710 -0.12700
C 	C 	0.63760 0.59110 0.14110 0.00100
C 	C 	0.74750 0.64210 0.43460 0.03900
H 	H 	0.75600 0.67600 0.51830 -0.05100
C 	C 	0.53940 0.59110 0.95460 0.17600
C 	C 	0.65080 0.63990 0.26840 -0.10800
H 	H 	0.59560 0.67100 0.24320 0.01500
C 	C 	0.81350 0.55030 0.35700 0.05200
H 	H 	0.86850 0.51850 0.38640 -0.07900
C 	C 	0.72090 0.54580 0.18940 -0.12600
H 	H 	0.71460 0.51170 0.10770 0.05700
C 	C 	0.44470 0.63420 0.91500 -0.61900
H 	H 	0.45850 0.65590 0.02460 0.18600
H 	H 	0.38260 0.60440 0.86650 0.19800
H 	H 	0.43190 0.67020 0.82820 0.17400
Cd	Cd	0.00000 0.60968 0.75000 1.06500
N 	N 	0.67150 0.09850 0.01920 -0.28400
N 	N 	0.95420 0.05580 0.66290 -0.11700
C 	C 	0.86240 0.09110 0.35890 -0.03900
C 	C 	0.75250 0.14210 0.06540 0.04700
H 	H 	0.74400 0.17600 0.98170 -0.06400
C 	C 	0.96060 0.09110 0.54540 0.31600
C 	C 	0.84920 0.13990 0.23160 -0.08700
H 	H 	0.90440 0.17100 0.25680 0.03200
C 	C 	0.68650 0.05030 0.14300 0.03800
H 	H 	0.63150 0.01850 0.11360 -0.09500
C 	C 	0.77910 0.04580 0.31060 -0.10000
H 	H 	0.78540 0.01170 0.39230 0.04600
C 	C 	0.05530 0.13420 0.58500 -0.82700
H 	H 	0.04150 0.15590 0.47540 0.21600
H 	H 	0.11740 0.10440 0.63350 0.25100
H 	H 	0.06810 0.17020 0.67180 0.21700
N 	N 	0.32850 0.09850 0.48080 -0.29600
N 	N 	0.04580 0.05580 0.83710 -0.13800
C 	C 	0.13760 0.09110 0.14110 0.04700
C 	C 	0.24750 0.14210 0.43460 0.04900
H 	H 	0.25600 0.17600 0.51830 -0.06800
C 	C 	0.03940 0.09110 0.95460 0.03200
C 	C 	0.15080 0.13990 0.26840 -0.14900
H 	H 	0.09560 0.17100 0.24320 0.00700
C 	C 	0.31350 0.05030 0.35700 0.06700
H 	H 	0.36850 0.01850 0.38640 -0.10800
C 	C 	0.22090 0.04580 0.18940 -0.17000
H 	H 	0.21460 0.01170 0.10770 0.06300
C 	C 	0.94470 0.13420 0.91500 -0.38600
H 	H 	0.95850 0.15590 0.02460 0.14600
H 	H 	0.88260 0.10440 0.86650 0.14200
H 	H 	0.93190 0.17020 0.82820 0.12900
Cd	Cd	0.50000 0.10968 0.75000 1.09100
