data_crystal

_cell_length_a 7.98900
_cell_length_b 8.95320
_cell_length_c 8.95320
_cell_angle_alpha 103.08200
_cell_angle_beta  100.06300
_cell_angle_gamma 100.06300

_symmetry_space_group_name_	'P 1'
_symmetry_space_group_name_H-M	'P 1'

loop_
_symmetry_equiv_pos_as_xyz
  x,y,z

loop_
_atom_site_label
_atom_site_type_symbol
_atom_site_fract_x
_atom_site_fract_y
_atom_site_fract_z
_atom_site_charge
Zn	Zn	0.57861 0.39521 0.39521 1.19700
Zn	Zn	0.42139 0.60479 0.60479 1.19700
H 	H 	0.73080 0.04560 0.52820 0.04200
H 	H 	0.04810 0.74730 0.46390 0.04300
H 	H 	0.26920 0.47180 0.95440 0.04300
H 	H 	0.95190 0.53610 0.25270 0.04400
H 	H 	0.26920 0.95440 0.47180 0.04300
H 	H 	0.95190 0.25270 0.53610 0.04400
H 	H 	0.73080 0.52820 0.04560 0.04300
H 	H 	0.04810 0.46390 0.74730 0.04400
C 	C 	0.86700 0.87550 0.49630 -0.08500
C 	C 	0.84180 0.02650 0.51670 -0.01400
C 	C 	0.02740 0.85050 0.47890 -0.01900
C 	C 	0.72390 0.73960 0.49240 0.39200
C 	C 	0.13300 0.50370 0.12450 -0.08500
C 	C 	0.15820 0.48330 0.97350 -0.01400
C 	C 	0.97260 0.52110 0.14950 -0.01900
C 	C 	0.27610 0.50760 0.26040 0.39200
C 	C 	0.13300 0.12450 0.50370 -0.08500
C 	C 	0.15820 0.97350 0.48330 -0.01400
C 	C 	0.97260 0.14950 0.52110 -0.01900
C 	C 	0.27610 0.26040 0.50760 0.39200
C 	C 	0.86700 0.49630 0.87550 -0.08500
C 	C 	0.84180 0.51670 0.02650 -0.01400
C 	C 	0.02740 0.47890 0.85050 -0.01900
C 	C 	0.72390 0.49240 0.73960 0.39200
O 	O 	0.72900 0.60640 0.41220 -0.48300
O 	O 	0.39060 0.43380 0.23140 -0.47600
O 	O 	0.27100 0.58780 0.39360 -0.48300
O 	O 	0.60940 0.76860 0.56620 -0.47600
O 	O 	0.27100 0.39360 0.58780 -0.48300
O 	O 	0.60940 0.56620 0.76860 -0.47600
O 	O 	0.72900 0.41220 0.60640 -0.48300
O 	O 	0.39060 0.23140 0.43380 -0.47600
