data_crystal

_cell_length_a 18.47800
_cell_length_b 12.18100
_cell_length_c 23.05500
_cell_angle_alpha 90.00000
_cell_angle_beta  90.00000
_cell_angle_gamma 90.00000

_symmetry_space_group_name_	'P 1'
_symmetry_space_group_name_H-M	'P 1'

loop_
_symmetry_equiv_pos_as_xyz
  x,y,z

loop_
_atom_site_label
_atom_site_type_symbol
_atom_site_fract_x
_atom_site_fract_y
_atom_site_fract_z
_atom_site_charge
Zn	Zn	0.29917 0.23754 0.18567 1.20800
Zn	Zn	0.20014 0.23794 0.29952 1.21300
Zn	Zn	0.17020 0.06638 0.20422 1.17100
Zn	Zn	0.31982 0.06147 0.28798 1.17100
C 	C 	0.11400 0.46270 0.17500 -0.11100
C 	C 	0.04610 0.48980 0.19855 0.04400
H 	H 	0.03060 0.45660 0.23270 0.03800
C 	C 	0.00230 0.56580 0.17096 -0.11600
C 	C 	0.02510 0.61590 0.12020 0.00900
H 	H 	0.99550 0.66700 0.10200 0.03600
C 	C 	0.09210 0.59010 0.09624 -0.05300
C 	C 	0.13480 0.51260 0.12340 0.01100
H 	H 	0.17880 0.49310 0.10660 0.03600
C 	C 	0.16110 0.38050 0.20324 0.36500
C 	C 	0.93100 0.59480 0.19860 0.38000
C 	C 	0.11710 0.64850 0.04146 0.09200
C 	C 	0.06880 0.69230 0.00290 -0.15000
H 	H 	0.01950 0.68330 0.00950 0.08200
C 	C 	0.09130 0.74970 0.95420 0.06500
H 	H 	0.05740 0.78130 0.92950 0.02100
C 	C 	0.16440 0.75980 0.94257 -0.13200
C 	C 	0.21340 0.71010 0.98030 0.06100
H 	H 	0.26270 0.71450 0.97260 0.01600
C 	C 	0.19000 0.65470 0.02880 -0.15200
H 	H 	0.22350 0.62130 0.05310 0.07700
C 	C 	0.19060 0.81810 0.88895 0.35800
C 	C 	0.49700 0.03600 0.17268 -0.11900
C 	C 	0.54270 0.96480 0.20083 0.04700
H 	H 	0.52770 0.92990 0.23460 0.03500
C 	C 	0.61230 0.94480 0.17860 -0.10900
C 	C 	0.63380 0.99820 0.12730 0.00700
H 	H 	0.67990 0.98580 0.11240 0.04100
C 	C 	0.58710 0.06920 0.09870 -0.04700
C 	C 	0.51900 0.08990 0.12240 0.00800
H 	H 	0.48810 0.13990 0.10460 0.03400
C 	C 	0.42330 0.06500 0.19760 0.39900
C 	C 	0.66310 0.86870 0.20925 0.37300
C 	C 	0.61040 0.12890 0.04575 0.08400
C 	C 	0.56000 0.16030 0.00250 -0.13500
H 	H 	0.51160 0.14020 0.00610 0.07600
C 	C 	0.58290 0.22260 0.95360 0.05700
H 	H 	0.54930 0.24580 0.92620 0.02500
C 	C 	0.65520 0.24830 0.94690 -0.14000
C 	C 	0.70310 0.20940 0.98600 0.06800
H 	H 	0.75200 0.22410 0.98040 0.00700
C 	C 	0.68290 0.14860 0.03430 -0.15200
H 	H 	0.71810 0.12090 0.05900 0.07700
C 	C 	0.67900 0.31630 0.89522 0.37200
O 	O 	0.24784 0.13840 0.24341 -0.94900
O 	O 	0.22282 0.36250 0.18058 -0.46800
O 	O 	0.13799 0.33590 0.25027 -0.46000
O 	O 	0.91518 0.54930 0.24576 -0.52600
O 	O 	0.89219 0.66460 0.17144 -0.46400
O 	O 	0.14176 0.86000 0.85658 -0.48500
O 	O 	0.25690 0.82440 0.87931 -0.47100
O 	O 	0.38427 0.12680 0.16945 -0.49300
O 	O 	0.40803 0.01870 0.24540 -0.51200
O 	O 	0.72610 0.86100 0.18730 -0.45900
O 	O 	0.63902 0.81760 0.25237 -0.47900
O 	O 	0.62874 0.34740 0.86153 -0.48300
O 	O 	0.74353 0.33470 0.88764 -0.49400
Zn	Zn	0.20083 0.76246 0.68567 1.20700
Zn	Zn	0.29986 0.76206 0.79952 1.21200
Zn	Zn	0.32980 0.93362 0.70422 1.17000
Zn	Zn	0.18018 0.93853 0.78798 1.17000
C 	C 	0.38600 0.53730 0.67500 -0.11200
C 	C 	0.45390 0.51020 0.69855 0.04300
H 	H 	0.46940 0.54340 0.73270 0.03700
C 	C 	0.49770 0.43420 0.67096 -0.11700
C 	C 	0.47490 0.38410 0.62020 0.00900
H 	H 	0.50450 0.33300 0.60200 0.03700
C 	C 	0.40790 0.40990 0.59624 -0.05200
C 	C 	0.36520 0.48740 0.62340 0.01100
H 	H 	0.32120 0.50690 0.60660 0.03600
C 	C 	0.33890 0.61950 0.70324 0.36500
C 	C 	0.56900 0.40520 0.69860 0.38000
C 	C 	0.38290 0.35150 0.54146 0.09200
C 	C 	0.43120 0.30770 0.50290 -0.15000
H 	H 	0.48050 0.31670 0.50950 0.08200
C 	C 	0.40870 0.25030 0.45420 0.06500
H 	H 	0.44260 0.21870 0.42950 0.02100
C 	C 	0.33560 0.24020 0.44257 -0.13200
C 	C 	0.28660 0.28990 0.48030 0.06200
H 	H 	0.23730 0.28550 0.47260 0.01600
C 	C 	0.31000 0.34530 0.52880 -0.15300
H 	H 	0.27650 0.37870 0.55310 0.07700
C 	C 	0.30940 0.18190 0.38895 0.35800
C 	C 	0.00300 0.96400 0.67268 -0.11800
C 	C 	0.95730 0.03520 0.70083 0.04600
H 	H 	0.97230 0.07010 0.73460 0.03600
C 	C 	0.88770 0.05520 0.67860 -0.10800
C 	C 	0.86620 0.00180 0.62730 0.00600
H 	H 	0.82010 0.01420 0.61240 0.04100
C 	C 	0.91290 0.93080 0.59870 -0.04600
C 	C 	0.98100 0.91010 0.62240 0.00600
H 	H 	0.01190 0.86010 0.60460 0.03500
C 	C 	0.07670 0.93500 0.69760 0.39800
C 	C 	0.83690 0.13130 0.70925 0.37300
C 	C 	0.88960 0.87110 0.54575 0.08300
C 	C 	0.94000 0.83970 0.50250 -0.13400
H 	H 	0.98840 0.85980 0.50610 0.07600
C 	C 	0.91710 0.77740 0.45360 0.05600
H 	H 	0.95070 0.75420 0.42620 0.02500
C 	C 	0.84480 0.75170 0.44690 -0.14000
C 	C 	0.79690 0.79060 0.48600 0.06700
H 	H 	0.74800 0.77590 0.48040 0.00700
C 	C 	0.81710 0.85140 0.53430 -0.15100
H 	H 	0.78190 0.87910 0.55900 0.07700
C 	C 	0.82100 0.68370 0.39522 0.37100
O 	O 	0.25216 0.86160 0.74341 -0.94900
O 	O 	0.27718 0.63750 0.68058 -0.46800
O 	O 	0.36201 0.66410 0.75027 -0.46000
O 	O 	0.58482 0.45070 0.74576 -0.52600
O 	O 	0.60781 0.33540 0.67144 -0.46400
O 	O 	0.35824 0.14000 0.35658 -0.48500
O 	O 	0.24310 0.17560 0.37931 -0.47100
O 	O 	0.11573 0.87320 0.66945 -0.49300
O 	O 	0.09197 0.98130 0.74540 -0.51200
O 	O 	0.77390 0.13900 0.68730 -0.45900
O 	O 	0.86098 0.18240 0.75237 -0.47900
O 	O 	0.87126 0.65260 0.36153 -0.48300
O 	O 	0.75647 0.66530 0.38764 -0.49300
Zn	Zn	0.70083 0.73754 0.31433 1.20700
Zn	Zn	0.79986 0.73794 0.20048 1.21200
Zn	Zn	0.82980 0.56638 0.29578 1.17000
Zn	Zn	0.68018 0.56147 0.21202 1.17000
C 	C 	0.88600 0.96270 0.32500 -0.11300
C 	C 	0.95390 0.98980 0.30145 0.04300
H 	H 	0.96940 0.95660 0.26730 0.03700
C 	C 	0.99770 0.06580 0.32904 -0.11700
C 	C 	0.97490 0.11590 0.37980 0.00900
H 	H 	0.00450 0.16700 0.39800 0.03600
C 	C 	0.90790 0.09010 0.40376 -0.05300
C 	C 	0.86520 0.01260 0.37660 0.01200
H 	H 	0.82120 0.99310 0.39340 0.03600
C 	C 	0.83890 0.88050 0.29676 0.36500
C 	C 	0.06900 0.09480 0.30140 0.38000
C 	C 	0.88290 0.14850 0.45854 0.09300
C 	C 	0.93120 0.19230 0.49710 -0.15000
H 	H 	0.98050 0.18330 0.49050 0.08200
C 	C 	0.90870 0.24970 0.54580 0.06500
H 	H 	0.94260 0.28130 0.57050 0.02100
C 	C 	0.83560 0.25980 0.55743 -0.13200
C 	C 	0.78660 0.21010 0.51970 0.06200
H 	H 	0.73730 0.21450 0.52740 0.01600
C 	C 	0.81000 0.15470 0.47120 -0.15300
H 	H 	0.77650 0.12130 0.44690 0.07700
C 	C 	0.80940 0.31810 0.61105 0.35800
C 	C 	0.50300 0.53600 0.32732 -0.11900
C 	C 	0.45730 0.46480 0.29917 0.04600
H 	H 	0.47230 0.42990 0.26540 0.03600
C 	C 	0.38770 0.44480 0.32140 -0.10800
C 	C 	0.36620 0.49820 0.37270 0.00600
H 	H 	0.32010 0.48580 0.38760 0.04100
C 	C 	0.41290 0.56920 0.40130 -0.04600
C 	C 	0.48100 0.58990 0.37760 0.00700
H 	H 	0.51190 0.63990 0.39540 0.03400
C 	C 	0.57670 0.56500 0.30240 0.39900
C 	C 	0.33690 0.36870 0.29075 0.37300
C 	C 	0.38960 0.62890 0.45425 0.08300
C 	C 	0.44000 0.66030 0.49750 -0.13400
H 	H 	0.48840 0.64020 0.49390 0.07600
C 	C 	0.41710 0.72260 0.54640 0.05600
H 	H 	0.45070 0.74580 0.57380 0.02500
C 	C 	0.34480 0.74830 0.55310 -0.14000
C 	C 	0.29690 0.70940 0.51400 0.06700
H 	H 	0.24800 0.72410 0.51960 0.00700
C 	C 	0.31710 0.64860 0.46570 -0.15100
H 	H 	0.28190 0.62090 0.44100 0.07700
C 	C 	0.32100 0.81630 0.60478 0.37200
O 	O 	0.75216 0.63840 0.25659 -0.94900
O 	O 	0.77718 0.86250 0.31942 -0.46800
O 	O 	0.86201 0.83590 0.24973 -0.46000
O 	O 	0.08482 0.04930 0.25424 -0.52600
O 	O 	0.10781 0.16460 0.32856 -0.46400
O 	O 	0.85824 0.36000 0.64342 -0.48500
O 	O 	0.74310 0.32440 0.62069 -0.47100
O 	O 	0.61573 0.62680 0.33055 -0.49300
O 	O 	0.59197 0.51870 0.25460 -0.51200
O 	O 	0.27390 0.36100 0.31270 -0.45900
O 	O 	0.36098 0.31760 0.24763 -0.47900
O 	O 	0.37126 0.84740 0.63847 -0.48300
O 	O 	0.25647 0.83470 0.61236 -0.49300
Zn	Zn	0.79917 0.26246 0.81433 1.20700
Zn	Zn	0.70014 0.26206 0.70048 1.21200
Zn	Zn	0.67020 0.43362 0.79578 1.17000
Zn	Zn	0.81982 0.43853 0.71202 1.17000
C 	C 	0.61400 0.03730 0.82500 -0.11200
C 	C 	0.54610 0.01020 0.80145 0.04300
H 	H 	0.53060 0.04340 0.76730 0.03800
C 	C 	0.50230 0.93420 0.82904 -0.11700
C 	C 	0.52510 0.88410 0.87980 0.00900
H 	H 	0.49550 0.83300 0.89800 0.03700
C 	C 	0.59210 0.90990 0.90376 -0.05200
C 	C 	0.63480 0.98740 0.87660 0.01000
H 	H 	0.67880 0.00690 0.89340 0.03600
C 	C 	0.66110 0.11950 0.79676 0.36400
C 	C 	0.43100 0.90520 0.80140 0.38000
C 	C 	0.61710 0.85150 0.95854 0.09300
C 	C 	0.56880 0.80770 0.99710 -0.15100
H 	H 	0.51950 0.81670 0.99050 0.08200
C 	C 	0.59130 0.75030 0.04580 0.06600
H 	H 	0.55740 0.71870 0.07050 0.02100
C 	C 	0.66440 0.74020 0.05743 -0.13200
C 	C 	0.71340 0.78990 0.01970 0.06200
H 	H 	0.76270 0.78550 0.02740 0.01600
C 	C 	0.69000 0.84530 0.97120 -0.15300
H 	H 	0.72350 0.87870 0.94690 0.07700
C 	C 	0.69060 0.68190 0.11105 0.35800
C 	C 	0.99700 0.46400 0.82732 -0.11900
C 	C 	0.04270 0.53520 0.79917 0.04600
H 	H 	0.02770 0.57010 0.76540 0.03500
C 	C 	0.11230 0.55520 0.82140 -0.10800
C 	C 	0.13380 0.50180 0.87270 0.00600
H 	H 	0.17990 0.51420 0.88760 0.04100
C 	C 	0.08710 0.43080 0.90130 -0.04600
C 	C 	0.01900 0.41010 0.87760 0.00800
H 	H 	0.98810 0.36010 0.89540 0.03400
C 	C 	0.92330 0.43500 0.80240 0.39900
C 	C 	0.16310 0.63130 0.79075 0.37300
C 	C 	0.11040 0.37110 0.95425 0.08300
C 	C 	0.06000 0.33970 0.99750 -0.13400
H 	H 	0.01160 0.35980 0.99390 0.07600
C 	C 	0.08290 0.27740 0.04640 0.05600
H 	H 	0.04930 0.25420 0.07380 0.02500
C 	C 	0.15520 0.25170 0.05310 -0.14000
C 	C 	0.20310 0.29060 0.01400 0.06700
H 	H 	0.25200 0.27590 0.01960 0.00700
C 	C 	0.18290 0.35140 0.96570 -0.15100
H 	H 	0.21810 0.37910 0.94100 0.07700
C 	C 	0.17900 0.18370 0.10478 0.37100
O 	O 	0.74784 0.36160 0.75659 -0.94900
O 	O 	0.72282 0.13750 0.81942 -0.46800
O 	O 	0.63799 0.16410 0.74973 -0.46000
O 	O 	0.41518 0.95070 0.75424 -0.52500
O 	O 	0.39219 0.83540 0.82856 -0.46400
O 	O 	0.64176 0.64000 0.14342 -0.48500
O 	O 	0.75690 0.67560 0.12069 -0.47100
O 	O 	0.88427 0.37320 0.83055 -0.49300
O 	O 	0.90803 0.48130 0.75460 -0.51200
O 	O 	0.22610 0.63900 0.81270 -0.45900
O 	O 	0.13902 0.68240 0.74763 -0.47900
O 	O 	0.12874 0.15260 0.13847 -0.48300
O 	O 	0.24353 0.16530 0.11236 -0.49300
