data_crystal

_cell_length_a 10.23190
_cell_length_b 18.73300
_cell_length_c 20.28300
_cell_angle_alpha 90.00000
_cell_angle_beta  90.00000
_cell_angle_gamma 90.00000

_symmetry_space_group_name_	'P 1'
_symmetry_space_group_name_H-M	'P 1'

loop_
_symmetry_equiv_pos_as_xyz
  x,y,z

loop_
_atom_site_label
_atom_site_type_symbol
_atom_site_fract_x
_atom_site_fract_y
_atom_site_fract_z
_atom_site_charge
Mn	Mn	0.16315 0.94969 0.94893 1.27300
Mn	Mn	0.33685 0.55031 0.44893 1.27400
Mn	Mn	0.83685 0.05031 0.05107 1.27400
Mn	Mn	0.66315 0.44969 0.55107 1.27500
H 	H 	0.72660 0.69640 0.81680 0.14700
H 	H 	0.46610 0.80190 0.83410 0.08400
H 	H 	0.62600 0.95470 0.94930 0.05300
H 	H 	0.85760 0.80610 0.86380 0.07500
H 	H 	0.79680 0.51590 0.68020 0.00800
H 	H 	0.79050 0.61580 0.74750 0.07700
H 	H 	0.45910 0.67480 0.65490 0.07800
H 	H 	0.47570 0.57370 0.59040 -0.02900
H 	H 	0.77340 0.80360 0.31680 0.14700
H 	H 	0.03390 0.69810 0.33410 0.08500
H 	H 	0.87400 0.54530 0.44930 0.05300
H 	H 	0.64240 0.69390 0.36380 0.07400
H 	H 	0.70320 0.98410 0.18020 0.00900
H 	H 	0.70950 0.88420 0.24750 0.07700
H 	H 	0.04090 0.82520 0.15490 0.07900
H 	H 	0.02430 0.92630 0.09040 -0.02800
H 	H 	0.27340 0.30360 0.18320 0.14700
H 	H 	0.53390 0.19810 0.16590 0.08400
H 	H 	0.37400 0.04530 0.05070 0.05300
H 	H 	0.14240 0.19390 0.13620 0.07500
H 	H 	0.20320 0.48410 0.31980 0.00800
H 	H 	0.20950 0.38420 0.25250 0.07700
H 	H 	0.54090 0.32520 0.34510 0.07800
H 	H 	0.52430 0.42630 0.40960 -0.02900
H 	H 	0.22660 0.19640 0.68320 0.14700
H 	H 	0.96610 0.30190 0.66590 0.08500
H 	H 	0.12600 0.45470 0.55070 0.05300
H 	H 	0.35760 0.30610 0.63620 0.07400
H 	H 	0.29680 0.01590 0.81980 0.00900
H 	H 	0.29050 0.11580 0.75250 0.07700
H 	H 	0.95910 0.17480 0.84510 0.07900
H 	H 	0.97570 0.07370 0.90960 -0.02800
C 	C 	0.66390 0.79414 0.84294 0.12500
C 	C 	0.54080 0.82329 0.85368 -0.09000
C 	C 	0.52650 0.88330 0.89281 -0.03600
C 	C 	0.63580 0.91408 0.92177 -0.00500
C 	C 	0.75870 0.88591 0.91072 -0.07600
C 	C 	0.77320 0.82563 0.87129 -0.07900
C 	C 	0.61280 0.72615 0.74454 0.20100
C 	C 	0.72780 0.54930 0.67458 0.06700
C 	C 	0.72460 0.60860 0.71518 -0.10100
C 	C 	0.62470 0.65691 0.70790 0.01600
C 	C 	0.53050 0.64306 0.66077 -0.10700
C 	C 	0.54140 0.58268 0.62243 0.07500
C 	C 	0.39250 0.91278 0.90510 0.27700
C 	C 	0.87720 0.92158 0.93970 0.39500
C 	C 	0.83610 0.70586 0.34294 0.12500
C 	C 	0.95920 0.67671 0.35368 -0.09100
C 	C 	0.97350 0.61670 0.39281 -0.03700
C 	C 	0.86420 0.58592 0.42177 -0.00500
C 	C 	0.74130 0.61409 0.41072 -0.07700
C 	C 	0.72680 0.67437 0.37129 -0.07900
C 	C 	0.88720 0.77385 0.24454 0.20100
C 	C 	0.77220 0.95070 0.17458 0.06700
C 	C 	0.77540 0.89140 0.21518 -0.10200
C 	C 	0.87530 0.84309 0.20790 0.01600
C 	C 	0.96950 0.85694 0.16077 -0.10800
C 	C 	0.95860 0.91732 0.12243 0.07400
C 	C 	0.10750 0.58722 0.40510 0.27800
C 	C 	0.62280 0.57842 0.43970 0.39500
C 	C 	0.33610 0.20586 0.15706 0.12500
C 	C 	0.45920 0.17671 0.14632 -0.09000
C 	C 	0.47350 0.11670 0.10719 -0.03600
C 	C 	0.36420 0.08592 0.07823 -0.00500
C 	C 	0.24130 0.11409 0.08928 -0.07600
C 	C 	0.22680 0.17437 0.12871 -0.07900
C 	C 	0.38720 0.27385 0.25546 0.20100
C 	C 	0.27220 0.45070 0.32542 0.06700
C 	C 	0.27540 0.39140 0.28482 -0.10100
C 	C 	0.37530 0.34309 0.29210 0.01600
C 	C 	0.46950 0.35694 0.33923 -0.10700
C 	C 	0.45860 0.41732 0.37757 0.07500
C 	C 	0.60750 0.08722 0.09490 0.27700
C 	C 	0.12280 0.07842 0.06030 0.39500
C 	C 	0.16390 0.29414 0.65706 0.12500
C 	C 	0.04080 0.32329 0.64632 -0.09100
C 	C 	0.02650 0.38330 0.60719 -0.03700
C 	C 	0.13580 0.41408 0.57823 -0.00500
C 	C 	0.25870 0.38591 0.58928 -0.07700
C 	C 	0.27320 0.32563 0.62871 -0.07900
C 	C 	0.11280 0.22615 0.75546 0.20100
C 	C 	0.22780 0.04930 0.82542 0.06700
C 	C 	0.22460 0.10860 0.78482 -0.10200
C 	C 	0.12470 0.15691 0.79210 0.01600
C 	C 	0.03050 0.14306 0.83923 -0.10800
C 	C 	0.04140 0.08268 0.87757 0.07400
C 	C 	0.89250 0.41278 0.59490 0.27800
C 	C 	0.37720 0.42158 0.56030 0.39500
N 	N 	0.67680 0.73171 0.80321 -0.23300
N 	N 	0.63890 0.53653 0.62796 -0.23100
N 	N 	0.82320 0.76829 0.30321 -0.23300
N 	N 	0.86110 0.96347 0.12796 -0.23100
N 	N 	0.32320 0.26829 0.19679 -0.23300
N 	N 	0.36110 0.46347 0.37204 -0.23100
N 	N 	0.17680 0.23171 0.69679 -0.23300
N 	N 	0.13890 0.03653 0.87204 -0.23100
O 	O 	0.54690 0.77427 0.72128 -0.22500
O 	O 	0.29362 0.88186 0.88084 -0.39100
O 	O 	0.38140 0.96667 0.94133 -0.38100
O 	O 	0.98798 0.89646 0.92578 -0.46500
O 	O 	0.86043 0.97567 0.97465 -0.50100
O 	O 	0.95310 0.72573 0.22128 -0.22500
O 	O 	0.20638 0.61814 0.38084 -0.39100
O 	O 	0.11860 0.53333 0.44133 -0.38000
O 	O 	0.51202 0.60354 0.42578 -0.46600
O 	O 	0.63957 0.52433 0.47465 -0.50200
O 	O 	0.45310 0.22573 0.27872 -0.22500
O 	O 	0.70638 0.11814 0.11916 -0.39100
O 	O 	0.61860 0.03333 0.05867 -0.38100
O 	O 	0.01202 0.10354 0.07422 -0.46500
O 	O 	0.13957 0.02433 0.02535 -0.50100
O 	O 	0.04690 0.27427 0.77872 -0.22500
O 	O 	0.79362 0.38186 0.61916 -0.39100
O 	O 	0.88140 0.46667 0.55867 -0.38000
O 	O 	0.48798 0.39646 0.57422 -0.46600
O 	O 	0.36043 0.47567 0.52535 -0.50200
Mn	Mn	0.16315 0.05031 0.55107 1.27500
Mn	Mn	0.33685 0.44969 0.05107 1.27500
Mn	Mn	0.83685 0.94969 0.44893 1.27500
Mn	Mn	0.66315 0.55031 0.94893 1.27500
H 	H 	0.72660 0.30360 0.68320 0.14700
H 	H 	0.46610 0.19810 0.66590 0.08400
H 	H 	0.62600 0.04530 0.55070 0.05300
H 	H 	0.85760 0.19390 0.63620 0.07400
H 	H 	0.79680 0.48410 0.81980 0.00800
H 	H 	0.79050 0.38420 0.75250 0.07700
H 	H 	0.45910 0.32520 0.84510 0.07800
H 	H 	0.47570 0.42630 0.90960 -0.02900
H 	H 	0.77340 0.19640 0.18320 0.14700
H 	H 	0.03390 0.30190 0.16590 0.08500
H 	H 	0.87400 0.45470 0.05070 0.05300
H 	H 	0.64240 0.30610 0.13620 0.07400
H 	H 	0.70320 0.01590 0.31980 0.00800
H 	H 	0.70950 0.11580 0.25250 0.07700
H 	H 	0.04090 0.17480 0.34510 0.07900
H 	H 	0.02430 0.07370 0.40960 -0.02900
H 	H 	0.27340 0.69640 0.31680 0.14700
H 	H 	0.53390 0.80190 0.33410 0.08400
H 	H 	0.37400 0.95470 0.44930 0.05300
H 	H 	0.14240 0.80610 0.36380 0.07400
H 	H 	0.20320 0.51590 0.18020 0.00800
H 	H 	0.20950 0.61580 0.24750 0.07700
H 	H 	0.54090 0.67480 0.15490 0.07800
H 	H 	0.52430 0.57370 0.09040 -0.02900
H 	H 	0.22660 0.80360 0.81680 0.14700
H 	H 	0.96610 0.69810 0.83410 0.08500
H 	H 	0.12600 0.54530 0.94930 0.05300
H 	H 	0.35760 0.69390 0.86380 0.07400
H 	H 	0.29680 0.98410 0.68020 0.00800
H 	H 	0.29050 0.88420 0.74750 0.07700
H 	H 	0.95910 0.82520 0.65490 0.07900
H 	H 	0.97570 0.92630 0.59040 -0.02900
C 	C 	0.66390 0.20586 0.65706 0.12500
C 	C 	0.54080 0.17671 0.64632 -0.09000
C 	C 	0.52650 0.11670 0.60719 -0.03600
C 	C 	0.63580 0.08592 0.57823 -0.00500
C 	C 	0.75870 0.11409 0.58928 -0.07700
C 	C 	0.77320 0.17437 0.62871 -0.07900
C 	C 	0.61280 0.27385 0.75546 0.20100
C 	C 	0.72780 0.45070 0.82542 0.06700
C 	C 	0.72460 0.39140 0.78482 -0.10100
C 	C 	0.62470 0.34309 0.79210 0.01600
C 	C 	0.53050 0.35694 0.83923 -0.10700
C 	C 	0.54140 0.41732 0.87757 0.07500
C 	C 	0.39250 0.08722 0.59490 0.27700
C 	C 	0.87720 0.07842 0.56030 0.39600
C 	C 	0.83610 0.29414 0.15706 0.12500
C 	C 	0.95920 0.32329 0.14632 -0.09200
C 	C 	0.97350 0.38330 0.10719 -0.03700
C 	C 	0.86420 0.41408 0.07823 -0.00500
C 	C 	0.74130 0.38591 0.08928 -0.07700
C 	C 	0.72680 0.32563 0.12871 -0.07900
C 	C 	0.88720 0.22615 0.25546 0.20100
C 	C 	0.77220 0.04930 0.32542 0.06700
C 	C 	0.77540 0.10860 0.28482 -0.10200
C 	C 	0.87530 0.15691 0.29210 0.01600
C 	C 	0.96950 0.14306 0.33923 -0.10800
C 	C 	0.95860 0.08268 0.37757 0.07500
C 	C 	0.10750 0.41278 0.09490 0.27800
C 	C 	0.62280 0.42158 0.06030 0.39500
C 	C 	0.33610 0.79414 0.34294 0.12500
C 	C 	0.45920 0.82329 0.35368 -0.09000
C 	C 	0.47350 0.88330 0.39281 -0.03600
C 	C 	0.36420 0.91408 0.42177 -0.00500
C 	C 	0.24130 0.88591 0.41072 -0.07700
C 	C 	0.22680 0.82563 0.37129 -0.07900
C 	C 	0.38720 0.72615 0.24454 0.20100
C 	C 	0.27220 0.54930 0.17458 0.06700
C 	C 	0.27540 0.60860 0.21518 -0.10100
C 	C 	0.37530 0.65691 0.20790 0.01600
C 	C 	0.46950 0.64306 0.16077 -0.10700
C 	C 	0.45860 0.58268 0.12243 0.07500
C 	C 	0.60750 0.91278 0.40510 0.27700
C 	C 	0.12280 0.92158 0.43970 0.39600
C 	C 	0.16390 0.70586 0.84294 0.12500
C 	C 	0.04080 0.67671 0.85368 -0.09200
C 	C 	0.02650 0.61670 0.89281 -0.03700
C 	C 	0.13580 0.58592 0.92177 -0.00500
C 	C 	0.25870 0.61409 0.91072 -0.07700
C 	C 	0.27320 0.67437 0.87129 -0.07900
C 	C 	0.11280 0.77385 0.74454 0.20100
C 	C 	0.22780 0.95070 0.67458 0.06700
C 	C 	0.22460 0.89140 0.71518 -0.10200
C 	C 	0.12470 0.84309 0.70790 0.01600
C 	C 	0.03050 0.85694 0.66077 -0.10800
C 	C 	0.04140 0.91732 0.62243 0.07500
C 	C 	0.89250 0.58722 0.90510 0.27800
C 	C 	0.37720 0.57842 0.93970 0.39500
N 	N 	0.67680 0.26829 0.69679 -0.23300
N 	N 	0.63890 0.46347 0.87204 -0.23100
N 	N 	0.82320 0.23171 0.19679 -0.23300
N 	N 	0.86110 0.03653 0.37204 -0.23100
N 	N 	0.32320 0.73171 0.30321 -0.23300
N 	N 	0.36110 0.53653 0.12796 -0.23100
N 	N 	0.17680 0.76829 0.80321 -0.23300
N 	N 	0.13890 0.96347 0.62796 -0.23100
O 	O 	0.54690 0.22573 0.77872 -0.22500
O 	O 	0.29362 0.11814 0.61916 -0.39100
O 	O 	0.38140 0.03333 0.55867 -0.38000
O 	O 	0.98798 0.10354 0.57422 -0.46600
O 	O 	0.86043 0.02433 0.52535 -0.50200
O 	O 	0.95310 0.27427 0.27872 -0.22500
O 	O 	0.20638 0.38186 0.11916 -0.39100
O 	O 	0.11860 0.46667 0.05867 -0.38000
O 	O 	0.51202 0.39646 0.07422 -0.46600
O 	O 	0.63957 0.47567 0.02535 -0.50200
O 	O 	0.45310 0.77427 0.22128 -0.22500
O 	O 	0.70638 0.88186 0.38084 -0.39100
O 	O 	0.61860 0.96667 0.44133 -0.38000
O 	O 	0.01202 0.89646 0.42578 -0.46600
O 	O 	0.13957 0.97567 0.47465 -0.50200
O 	O 	0.04690 0.72573 0.72128 -0.22500
O 	O 	0.79362 0.61814 0.88084 -0.39100
O 	O 	0.88140 0.53333 0.94133 -0.38000
O 	O 	0.48798 0.60354 0.92578 -0.46600
O 	O 	0.36043 0.52433 0.97465 -0.50200
