data_crystal

_audit_creation_method 'AiiDA-DDEC plugin'

_cell_length_a        33.12973
_cell_length_b        33.14414
_cell_length_c        11.74005

_cell_angle_alpha     89.91008
_cell_angle_beta     90.08045
_cell_angle_gamma     119.97909

_symmetry_space_group_name_Hall 'P 1'
_symmetry_space_group_name_H-M  'P 1'

loop_
_symmetry_equiv_pos_as_xyz
 'x,y,z'

loop_
_atom_site_label
_atom_site_type_symbol
_atom_site_fract_x
_atom_site_fract_y
_atom_site_fract_z
_atom_site_charge
Zn         Zn      0.22456   0.05483   0.78562   0.92165
Zn         Zn      0.22477   0.11183   0.02657   0.92439
Zn         Zn      0.27696   0.83656   0.44833   0.92168
Zn         Zn      0.94509   0.77549   0.78546   0.92102
Zn         Zn      0.22451   0.16970   0.78557   0.92271
Zn         Zn      0.49700   0.10833   0.11699   0.92297
Zn         Zn      0.88822   0.77523   0.02658   0.92438
Zn         Zn      0.22041   0.77834   0.68931   0.92472
Zn         Zn      0.94516   0.16978   0.78558   0.92357
Zn         Zn      0.88704   0.11156   0.02647   0.92619
Zn         Zn      0.16363   0.44189   0.44858   0.92195
Zn         Zn      0.83034   0.05486   0.78523   0.92168
Zn         Zn      0.89124   0.38824   0.11672   0.92146
Zn         Zn      0.22024   0.44224   0.69001   0.92149
Zn         Zn      0.83023   0.77540   0.78572   0.92265
Zn         Zn      0.55839   0.72203   0.44880   0.92360
Zn         Zn      0.61153   0.50303   0.11706   0.92258
Zn         Zn      0.55773   0.77979   0.69003   0.92143
Zn         Zn      0.16340   0.72290   0.44825   0.92191
Zn         Zn      0.89130   0.50304   0.11703   0.92187
Zn         Zn      0.27833   0.44190   0.44882   0.92379
Zn         Zn      0.49693   0.38818   0.11675   0.92095
Zn         Zn      0.55801   0.83641   0.44863   0.92180
Zn         Zn      0.61184   0.10875   0.11670   0.92109
Zn         Zn      0.89115   0.44476   0.35779   0.92559
Zn         Zn      0.55526   0.10881   0.35783   0.92531
Zn         Zn      0.55362   0.44473   0.35777   0.92611
H          H       0.35496   0.13465   0.13405   0.13550
H          H       0.09360   0.98717   0.16760   0.13889
H          H       0.43437   0.14612   0.18402   0.10007
H          H       0.43223   0.06837   0.90720   0.10064
H          H       0.35461   0.05723   0.84056   0.13219
H          H       0.22574   0.17767   0.42934   0.12415
H          H       0.22666   0.17532   0.21424   0.10653
H          H       0.01274   0.90628   0.16750   0.13874
H          H       0.22559   0.04789   0.43082   0.12410
H          H       0.22658   0.05079   0.21571   0.10574
H          H       0.19888   0.88632   0.79987   0.13383
H          H       0.18783   0.95423   0.85236   0.09649
H          H       0.26560   0.03095   0.57647   0.10041
H          H       0.27603   0.96441   0.50701   0.13164
H          H       0.18021   0.09014   0.85125   0.37368
H          H       0.86564   0.22007   0.13556   0.13245
H          H       0.01289   0.10651   0.16822   0.13721
H          H       0.85399   0.28790   0.18470   0.09588
H          H       0.93163   0.36347   0.90744   0.10038
H          H       0.94295   0.29712   0.84159   0.13206
H          H       0.82228   0.04781   0.43049   0.12383
H          H       0.82422   0.05061   0.21537   0.10661
H          H       0.09371   0.10633   0.16805   0.13671
H          H       0.95191   0.17762   0.42929   0.12399
H          H       0.94862   0.17515   0.21419   0.10590
H          H       0.11332   0.31267   0.80171   0.13551
H          H       0.04568   0.23332   0.85162   0.10001
H          H       0.96968   0.23504   0.57445   0.10010
H          H       0.03605   0.31246   0.50718   0.13153
H          H       0.91012   0.09031   0.85112   0.37265
H          H       0.77981   0.64517   0.13552   0.13537
H          H       0.89369   0.90627   0.16799   0.13840
H          H       0.71193   0.56572   0.18486   0.09612
H          H       0.63645   0.56796   0.90716   0.10036
H          H       0.70282   0.64566   0.84130   0.13234
H          H       0.95215   0.77449   0.43089   0.12373
H          H       0.94927   0.77342   0.21578   0.10622
H          H       0.89337   0.98699   0.16794   0.13870
H          H       0.82225   0.77419   0.42919   0.12423
H          H       0.82463   0.77322   0.21409   0.10619
H          H       0.68802   0.80164   0.80374   0.13543
H          H       0.76735   0.81285   0.85313   0.09610
H          H       0.76457   0.73464   0.57676   0.09981
H          H       0.68687   0.72353   0.51090   0.13153
H          H       0.90966   0.81976   0.85114   0.37333
H          H       0.86543   0.64526   0.13324   0.13571
H          H       0.85422   0.56605   0.18362   0.09635
H          H       0.93183   0.56805   0.90671   0.09605
H          H       0.94270   0.64543   0.83937   0.13140
H          H       0.11354   0.80105   0.79875   0.13250
H          H       0.04571   0.81226   0.85170   0.09635
H          H       0.96868   0.73443   0.57626   0.10106
H          H       0.03504   0.72377   0.50651   0.13212
H          H       0.35443   0.22002   0.13480   0.13409
H          H       0.43385   0.28785   0.18448   0.09976
H          H       0.43181   0.36349   0.90701   0.10010
H          H       0.35421   0.29711   0.84050   0.13159
H          H       0.19838   0.31205   0.80353   0.13235
H          H       0.18718   0.23277   0.85302   0.09608
H          H       0.26544   0.23554   0.57665   0.09983
H          H       0.27655   0.31320   0.51073   0.13166
H          H       0.78011   0.13434   0.13337   0.13182
H          H       0.71227   0.14580   0.18340   0.09631
H          H       0.63632   0.06812   0.90668   0.10050
H          H       0.70272   0.05719   0.83943   0.13171
H          H       0.68727   0.88663   0.80163   0.13418
H          H       0.76659   0.95426   0.85181   0.09594
H          H       0.76490   0.03040   0.57497   0.09648
H          H       0.68759   0.96401   0.50721   0.13164
H          H       0.02056   0.46689   0.46545   0.13618
H          H       0.76055   0.32030   0.49936   0.13916
H          H       0.09974   0.47825   0.51715   0.09685
H          H       0.09860   0.40099   0.24032   0.10095
H          H       0.02138   0.39013   0.17173   0.13252
H          H       0.89205   0.51079   0.75978   0.12451
H          H       0.89283   0.50831   0.54492   0.10611
H          H       0.67963   0.23932   0.49929   0.13862
H          H       0.89212   0.38106   0.76162   0.12656
H          H       0.89293   0.38379   0.54674   0.10657
H          H       0.84670   0.42350   0.18162   0.37271
H          H       0.53187   0.55365   0.46806   0.13220
H          H       0.67965   0.44002   0.49981   0.13678
H          H       0.52128   0.62204   0.51763   0.09619
H          H       0.59863   0.69693   0.23930   0.10139
H          H       0.60918   0.63008   0.17347   0.13212
H          H       0.48899   0.38098   0.76139   0.12637
H          H       0.49090   0.38367   0.54649   0.10640
H          H       0.76066   0.44018   0.49962   0.13823
H          H       0.61865   0.51082   0.75998   0.12402
H          H       0.61541   0.50826   0.54511   0.10628
H          H       0.57669   0.42360   0.18158   0.37363
H          H       0.44639   0.97776   0.46847   0.13153
H          H       0.55999   0.23921   0.49949   0.13698
H          H       0.37774   0.89898   0.51796   0.09579
H          H       0.30304   0.90216   0.23971   0.10064
H          H       0.37015   0.97929   0.17363   0.13231
H          H       0.61904   0.10796   0.76163   0.12649
H          H       0.61627   0.10702   0.54672   0.10618
H          H       0.55973   0.32000   0.49934   0.13644
H          H       0.48919   0.10788   0.75976   0.12407
H          H       0.49164   0.10702   0.54489   0.10607
H          H       0.57625   0.15302   0.18124   0.37368
H          H       0.53316   0.97946   0.46551   0.13590
H          H       0.52174   0.90027   0.51703   0.10122
H          H       0.59901   0.90143   0.24013   0.10093
H          H       0.60995   0.97869   0.17173   0.13266
H          H       0.02206   0.55351   0.46839   0.13165
H          H       0.10094   0.62203   0.51774   0.09524
H          H       0.09778   0.69679   0.23954   0.10115
H          H       0.02055   0.62979   0.17370   0.13223
H          H       0.44634   0.46693   0.46569   0.13571
H          H       0.37871   0.47868   0.51603   0.09676
H          H       0.30262   0.40148   0.23884   0.09657
H          H       0.36885   0.39019   0.17161   0.13226
H          H       0.42746   0.65334   0.83164   0.13639
H          H       0.55846   0.84420   0.09338   0.12538
H          H       0.55859   0.84201   0.87835   0.10738
H          H       0.34664   0.57248   0.83153   0.13658
H          H       0.55875   0.71455   0.09216   0.12347
H          H       0.55864   0.71752   0.87723   0.10544
H          H       0.51366   0.75665   0.51451   0.37326
H          H       0.34636   0.77428   0.83089   0.13977
H          H       0.15570   0.71423   0.09258   0.12541
H          H       0.15776   0.71696   0.87760   0.10569
H          H       0.42734   0.77435   0.83055   0.13961
H          H       0.28540   0.84406   0.09141   0.12695
H          H       0.28217   0.84149   0.87638   0.10711
H          H       0.24283   0.75727   0.51191   0.37561
H          H       0.22559   0.57249   0.83027   0.13670
H          H       0.28553   0.44131   0.09211   0.12666
H          H       0.28251   0.44133   0.87720   0.10554
H          H       0.22563   0.65340   0.83056   0.13682
H          H       0.15575   0.44146   0.09337   0.12632
H          H       0.15792   0.44128   0.87834   0.10736
H          H       0.24327   0.48631   0.51444   0.37276
C          C       0.10535   0.96889  -0.00165  -0.13608
C          C       0.15058   0.00919   0.96624   0.58883
C          C       0.37167   0.12020   0.08151  -0.15010
C          C       0.30199   0.08856   0.95125   0.58601
C          C       0.08069   0.96178   0.09908  -0.11615
C          C       0.34915   0.09520   0.98333   0.01943
C          C       0.41501   0.12601   0.11008   0.07889
C          C       0.41408   0.08292   0.95379   0.07693
C          C       0.37120   0.07658   0.91778  -0.15134
C          C       0.22652   0.11324   0.57569   0.59859
C          C       0.22642   0.11317   0.44642   0.00827
C          C       0.22643   0.14933   0.38463  -0.15209
C          C       0.22684   0.14817   0.26604   0.09302
C          C       0.03110   0.89463  -0.00174  -0.13696
C          C       0.99080   0.84941   0.96620   0.58984
C          C       0.03816   0.91924   0.09902  -0.11580
C          C       0.22636   0.07688   0.38545  -0.15283
C          C       0.22678   0.07823   0.26687   0.09171
C          C       0.21330   0.91768   0.74791  -0.14986
C          C       0.24400   0.87985   0.61440   0.58331
C          C       0.23791   0.92041   0.64880   0.01956
C          C       0.20778   0.95521   0.77793   0.08277
C          C       0.25083   0.99800   0.62212   0.07843
C          C       0.25680   0.96146   0.58454  -0.15219
C          C       0.03103   0.13638  -0.00138  -0.13615
C          C       0.99065   0.14127   0.96638   0.59016
C          C       0.88002   0.25119   0.08272  -0.14820
C          C       0.91147   0.21311   0.95228   0.58862
C          C       0.03821   0.11887   0.09950  -0.11603
C          C       0.90498   0.25367   0.98452   0.01743
C          C       0.87411   0.28865   0.11086   0.08291
C          C       0.91712   0.33081   0.95432   0.07711
C          C       0.92356   0.29433   0.91874  -0.15012
C          C       0.88674   0.11323   0.57555   0.60005
C          C       0.88674   0.11310   0.44627   0.00765
C          C       0.85052   0.07678   0.38521  -0.15239
C          C       0.85145   0.07805   0.26662   0.09200
C          C       0.10535   0.13634  -0.00140  -0.13665
C          C       0.15059   0.14122   0.96645   0.58950
C          C       0.08075   0.11882   0.09947  -0.11487
C          C       0.92288   0.14924   0.38455  -0.15253
C          C       0.92132   0.14801   0.26597   0.09387
C          C       0.08220   0.29595   0.74886  -0.15072
C          C       0.11993   0.36552   0.61779   0.58615
C          C       0.07961   0.31832   0.65029   0.01994
C          C       0.04477   0.25258   0.77754   0.07886
C          C       0.00241   0.25322   0.62108   0.07728
C          C       0.03890   0.29605   0.58475  -0.15300
C          C       0.86376   0.89461  -0.00155  -0.13631
C          C       0.85888   0.84939   0.96641   0.58843
C          C       0.74868   0.62849   0.08269  -0.15039
C          C       0.78674   0.69818   0.95230   0.58551
C          C       0.88121   0.91920   0.09932  -0.11658
C          C       0.74621   0.65106   0.98445   0.01844
C          C       0.71118   0.58513   0.11093   0.08288
C          C       0.66908   0.58611   0.95418   0.07739
C          C       0.70558   0.62903   0.91856  -0.15088
C          C       0.88666   0.77346   0.57562   0.59884
C          C       0.88679   0.77358   0.44637   0.00823
C          C       0.92314   0.77367   0.38548  -0.15250
C          C       0.92181   0.77321   0.26689   0.09150
C          C       0.86360   0.96881  -0.00175  -0.13610
C          C       0.85860   0.00910   0.96617   0.58944
C          C       0.88109   0.96169   0.09924  -0.11600
C          C       0.85062   0.77352   0.38451  -0.15217
C          C       0.85180   0.77309   0.26594   0.09306
C          C       0.70451   0.78696   0.75118  -0.15113
C          C       0.63491   0.75586   0.62037   0.58661
C          C       0.68182   0.76193   0.65317   0.01767
C          C       0.74784   0.79266   0.77945   0.08374
C          C       0.74656   0.74931   0.62344   0.07702
C          C       0.70363   0.74300   0.58785  -0.15035
C          C       0.87991   0.62860   0.08063  -0.15067
C          C       0.91110   0.69806   0.94983   0.58612
C          C       0.90471   0.65101   0.98208   0.01998
C          C       0.87424   0.58536   0.10951   0.08367
C          C       0.91723   0.58618   0.95313   0.08112
C          C       0.92340   0.62896   0.91676  -0.15189
C          C       0.08207   0.78660   0.74721  -0.14752
C          C       0.11975   0.75551   0.61503   0.58778
C          C       0.07918   0.76178   0.64846   0.01807
C          C       0.04462   0.79223   0.77736   0.08375
C          C       0.00168   0.74912   0.62175   0.07706
C          C       0.03815   0.74302   0.58409  -0.15093
C          C       0.37117   0.25114   0.08196  -0.15023
C          C       0.30171   0.21304   0.95106   0.58606
C          C       0.34873   0.25361   0.98346   0.01917
C          C       0.41451   0.28860   0.11042   0.08027
C          C       0.41367   0.33079   0.95374   0.07818
C          C       0.37079   0.29430   0.91780  -0.15147
C          C       0.21308   0.29558   0.75101  -0.14816
C          C       0.24431   0.36522   0.62034   0.58604
C          C       0.23816   0.31828   0.65302   0.01847
C          C       0.20738   0.25226   0.77931   0.08328
C          C       0.25075   0.25354   0.62332   0.07727
C          C       0.25707   0.29645   0.58770  -0.15125
C          C       0.74897   0.11998   0.08058  -0.14797
C          C       0.78705   0.08865   0.94976   0.58579
C          C       0.74650   0.09520   0.98203   0.02024
C          C       0.71146   0.12576   0.10932   0.08297
C          C       0.66912   0.08276   0.95308   0.07860
C          C       0.70568   0.07655   0.91673  -0.15248
C          C       0.70400   0.91779   0.74890  -0.14955
C          C       0.63445   0.88009   0.61776   0.58616
C          C       0.68166   0.92041   0.65031   0.01959
C          C       0.74732   0.95522   0.77779   0.08273
C          C       0.74671   0.99765   0.62147   0.08031
C          C       0.70394   0.96115   0.58486  -0.15198
C          C       0.77201   0.30222   0.32967  -0.13766
C          C       0.81718   0.34257   0.29762   0.58969
C          C       0.03743   0.45254   0.41317  -0.15115
C          C       0.96821   0.42122   0.28127   0.58505
C          C       0.74750   0.29499   0.43069  -0.11578
C          C       0.01529   0.42782   0.31431   0.02040
C          C       0.08067   0.45829   0.44274   0.08421
C          C       0.08032   0.41551   0.28643   0.07662
C          C       0.03760   0.40931   0.24938  -0.15211
C          C       0.89313   0.44657   0.90665   0.60150
C          C       0.89288   0.44635   0.77729   0.00628
C          C       0.89278   0.48242   0.71530  -0.15220
C          C       0.89312   0.48120   0.59672   0.09183
C          C       0.69781   0.22798   0.32960  -0.13716
C          C       0.65749   0.18279   0.29752   0.58965
C          C       0.70497   0.25244   0.43065  -0.11570
C          C       0.89281   0.41003   0.71635  -0.15494
C          C       0.89315   0.41128   0.59776   0.09216
C          C       0.69748   0.46946   0.32978  -0.13670
C          C       0.65699   0.47421   0.29773   0.58922
C          C       0.54649   0.58473   0.41507  -0.14720
C          C       0.57750   0.54616   0.28411   0.58707
C          C       0.70489   0.45229   0.43092  -0.11490
C          C       0.57122   0.58688   0.31664   0.01705
C          C       0.54112   0.62252   0.44344   0.08335
C          C       0.58401   0.66431   0.28639   0.07710
C          C       0.58999   0.62754   0.25079  -0.15084
C          C       0.55338   0.44658   0.90660   0.60094
C          C       0.55344   0.44632   0.77723   0.00592
C          C       0.51723   0.40996   0.71618  -0.15456
C          C       0.51815   0.41118   0.59759   0.09237
C          C       0.77194   0.46966   0.32968  -0.13697
C          C       0.81726   0.47467   0.29762   0.58769
C          C       0.74751   0.45237   0.43083  -0.11619
C          C       0.58959   0.48241   0.71539  -0.15184
C          C       0.58804   0.48115   0.59681   0.09209
C          C       0.53057   0.22779   0.32950  -0.13571
C          C       0.52596   0.18266   0.29758   0.58803
C          C       0.41529   0.96156   0.41544  -0.14693
C          C       0.45399   0.03120   0.28412   0.58678
C          C       0.54769   0.25224   0.43068  -0.11528
C          C       0.41325   0.98428   0.31695   0.01872
C          C       0.37734   0.91849   0.44386   0.08285
C          C       0.33566   0.91996   0.28687   0.07671
C          C       0.37257   0.96259   0.25111  -0.15129
C          C       0.55344   0.10681   0.90659   0.60167
C          C       0.55368   0.10711   0.77725   0.00615
C          C       0.59004   0.10721   0.71634  -0.15536
C          C       0.58876   0.10680   0.59775   0.09337
C          C       0.53023   0.30195   0.32944  -0.13627
C          C       0.52530   0.34230   0.29744   0.58909
C          C       0.54753   0.29471   0.43061  -0.11453
C          C       0.51757   0.10716   0.71528  -0.15221
C          C       0.51878   0.10676   0.59671   0.09238
C          C       0.54751   0.96260   0.41316  -0.15132
C          C       0.57898   0.03184   0.28129   0.58432
C          C       0.57226   0.98474   0.31434   0.02158
C          C       0.54172   0.91937   0.44266   0.08052
C          C       0.58451   0.91971   0.28630   0.07641
C          C       0.59075   0.96243   0.24934  -0.15260
C          C       0.03832   0.58458   0.41531  -0.14771
C          C       0.96867   0.54589   0.28405   0.58621
C          C       0.01560   0.58664   0.31685   0.01923
C          C       0.08145   0.62248   0.44365   0.08337
C          C       0.07998   0.66417   0.28671   0.07624
C          C       0.03729   0.62731   0.25105  -0.15244
C          C       0.41519   0.45267   0.41298  -0.15086
C          C       0.45294   0.42109   0.28147   0.58579
C          C       0.41257   0.42785   0.31435   0.01974
C          C       0.37777   0.45860   0.44189   0.08417
C          C       0.33535   0.41584   0.28541   0.08116
C          C       0.37180   0.40945   0.24903  -0.15216
C          C       0.43845   0.63602   0.66061  -0.13770
C          C       0.48371   0.67650   0.62877   0.58892
C          C       0.41421   0.62835   0.76228  -0.11417
C          C       0.56058   0.78017   0.23844   0.59923
C          C       0.55953   0.77980   0.10921   0.00723
C          C       0.55902   0.81589   0.04821  -0.15389
C          C       0.55892   0.81481   0.92964   0.09257
C          C       0.36412   0.56160   0.66060  -0.13720
C          C       0.32378   0.51628   0.62875   0.59022
C          C       0.37168   0.58579   0.76225  -0.11460
C          C       0.55918   0.74352   0.04750  -0.15299
C          C       0.55902   0.74491   0.92896   0.09316
C          C       0.36358   0.80251   0.65973  -0.13594
C          C       0.32311   0.80738   0.62832   0.58847
C          C       0.37132   0.78594   0.76144  -0.11901
C          C       0.21933   0.78053   0.23773   0.59775
C          C       0.22001   0.77970   0.10848   0.00733
C          C       0.18396   0.74321   0.04739  -0.15320
C          C       0.18496   0.74446   0.92882   0.09223
C          C       0.43806   0.80279   0.65959  -0.13739
C          C       0.48349   0.80796   0.62827   0.58972
C          C       0.41392   0.78604   0.76130  -0.11665
C          C       0.25635   0.81566   0.04677  -0.15401
C          C       0.25484   0.81441   0.92819   0.09149
C          C       0.19728   0.56182   0.65929  -0.13795
C          C       0.19226   0.51647   0.62815   0.58889
C          C       0.21392   0.58592   0.76102  -0.11303
C          C       0.21987   0.43945   0.23844   0.59840
C          C       0.22022   0.44048   0.10919   0.00737
C          C       0.25652   0.44084   0.04747  -0.15568
C          C       0.25511   0.44096   0.92892   0.09325
C          C       0.19737   0.63615   0.65944  -0.13675
C          C       0.19246   0.67657   0.62816   0.58837
C          C       0.21395   0.62845   0.76116  -0.11510
C          C       0.18409   0.44092   0.04819  -0.15522
C          C       0.18516   0.44100   0.92963   0.09260
S          S       0.07623   0.92381   0.90309   0.17800
S          S       0.07610   0.15228   0.90330   0.17772
S          S       0.84781   0.92378   0.90298   0.17776
S          S       0.74281   0.25726   0.23420   0.17892
S          S       0.74244   0.48521   0.23414   0.17754
S          S       0.51477   0.25705   0.23385   0.17753
S          S       0.40885   0.59131   0.56459   0.17725
S          S       0.40826   0.81776   0.56351   0.17781
S          S       0.18226   0.59155   0.56313   0.17864
N          N       0.43599   0.10746   0.04797  -0.21812
N          N       0.22716   0.11332   0.20784  -0.19781
N          N       0.22633   0.99499   0.71661  -0.21964
N          N       0.33783   0.89788   0.38137  -0.21906
N          N       0.89252   0.32813   0.04838  -0.22052
N          N       0.88618   0.11311   0.20769  -0.19932
N          N       0.00516   0.23142   0.71550  -0.21952
N          N       0.10191   0.43989   0.38104  -0.21941
N          N       0.67169   0.56415   0.04843  -0.21968
N          N       0.88669   0.77279   0.20781  -0.19781
N          N       0.76872   0.77404   0.71718  -0.21906
N          N       0.55974   0.66198   0.38083  -0.21905
N          N       0.89277   0.56435   0.04747  -0.21883
N          N       0.00476   0.77362   0.71630  -0.21964
N          N       0.10210   0.66196   0.38109  -0.21839
N          N       0.43558   0.32810   0.04798  -0.22027
N          N       0.22601   0.23139   0.71710  -0.21971
N          N       0.33815   0.44027   0.37988  -0.21987
N          N       0.67185   0.10730   0.04728  -0.22065
N          N       0.76846   0.99490   0.71602  -0.22038
N          N       0.56011   0.89812   0.38090  -0.21950
N          N       0.89348   0.44633   0.53867  -0.19710
N          N       0.55286   0.44624   0.53862  -0.19703
N          N       0.55366   0.10639   0.53868  -0.19770
N          N       0.55911   0.78004   0.87084  -0.19533
N          N       0.21961   0.77960   0.86997  -0.19599
N          N       0.21996   0.44083   0.87082  -0.19556
O          O       0.21417   0.10703   0.85153  -0.84092
O          O       0.17196   0.04037   0.04059  -0.55539
O          O       0.28880   0.07517   0.84905  -0.55518
O          O       0.16382   0.00838   0.86325  -0.57986
O          O       0.22665   0.07864   0.62238  -0.55200
O          O       0.28042   0.09651   0.02850  -0.55227
O          O       0.95961   0.82808   0.04059  -0.55544
O          O       0.99161   0.83613   0.86326  -0.58066
O          O       0.22665   0.14792   0.62233  -0.55176
O          O       0.25630   0.88016   0.51090  -0.55457
O          O       0.23675   0.85023   0.69096  -0.55204
O          O       0.22571   0.77410   0.51431  -0.83970
O          O       0.17201   0.13132   0.04063  -0.55638
O          O       0.32319   0.82086   0.52509  -0.58227
O          O       0.25356   0.81556   0.28447  -0.55122
O          O       0.28002   0.18350   0.02829  -0.55253
O          O       0.89293   0.10708   0.85152  -0.84027
O          O       0.95941   0.13139   0.04052  -0.55663
O          O       0.92528   0.21376   0.85032  -0.55656
O          O       0.99154   0.15540   0.86325  -0.58250
O          O       0.92124   0.14799   0.62225  -0.55263
O          O       0.90295   0.18312   0.02879  -0.55443
O          O       0.16380   0.15537   0.86338  -0.58139
O          O       0.85209   0.07859   0.62220  -0.55149
O          O       0.12095   0.37758   0.51384  -0.55647
O          O       0.14820   0.38832   0.69645  -0.55347
O          O       0.22615   0.45236   0.51476  -0.83811
O          O       0.86851   0.04027   0.04055  -0.55529
O          O       0.17814   0.50291   0.52540  -0.58129
O          O       0.18556   0.44002   0.28526  -0.55207
O          O       0.81567   0.09473   0.02824  -0.55334
O          O       0.89289   0.78582   0.85154  -0.83962
O          O       0.86866   0.82793   0.04071  -0.55576
O          O       0.78618   0.71143   0.85029  -0.55640
O          O       0.84481   0.83623   0.86330  -0.58138
O          O       0.85186   0.77314   0.62227  -0.55187
O          O       0.81662   0.71963   0.02895  -0.55280
O          O       0.84442   0.00832   0.86322  -0.58039
O          O       0.92135   0.77350   0.62234  -0.55209
O          O       0.62148   0.74156   0.51882  -0.55724
O          O       0.61395   0.76529   0.69632  -0.55091
O          O       0.54762   0.77397   0.51479  -0.83829
O          O       0.49682   0.67632   0.52530  -0.58329
O          O       0.56230   0.74635   0.28513  -0.55376
O          O       0.90442   0.72015   0.02816  -0.55339
O          O       0.92299   0.71072   0.84654  -0.55449
O          O       0.11943   0.74257   0.51235  -0.55573
O          O       0.14951   0.76334   0.69165  -0.55205
O          O       0.17924   0.67671   0.52487  -0.58091
O          O       0.18431   0.74632   0.28464  -0.55214
O          O       0.28878   0.21321   0.84841  -0.55566
O          O       0.25878   0.37878   0.51894  -0.55700
O          O       0.23476   0.38609   0.69629  -0.55065
O          O       0.32436   0.50310   0.52553  -0.58371
O          O       0.25376   0.43785   0.28515  -0.55280
O          O       0.78784   0.07715   0.84619  -0.55305
O          O       0.62242   0.87906   0.51381  -0.55635
O          O       0.61165   0.85182   0.69646  -0.55335
O          O       0.49715   0.82235   0.52570  -0.58225
O          O       0.55989   0.81440   0.28528  -0.55212
O          O       0.88066   0.44033   0.18273  -0.83870
O          O       0.83844   0.37371   0.37215  -0.55520
O          O       0.95603   0.40977   0.17755  -0.55369
O          O       0.83052   0.34189   0.19472  -0.57989
O          O       0.89323   0.41198   0.95351  -0.55292
O          O       0.94559   0.42726   0.35937  -0.55401
O          O       0.62634   0.16154   0.37207  -0.55501
O          O       0.65823   0.16947   0.19464  -0.57971
O          O       0.89342   0.48133   0.95335  -0.55307
O          O       0.83879   0.46496   0.37194  -0.55706
O          O       0.94753   0.51549   0.35995  -0.55207
O          O       0.55943   0.44031   0.18285  -0.83947
O          O       0.62602   0.46482   0.37236  -0.55690
O          O       0.59176   0.54707   0.18242  -0.55693
O          O       0.65737   0.48768   0.19426  -0.58180
O          O       0.58784   0.48139   0.95334  -0.55315
O          O       0.56846   0.51586   0.36012  -0.55222
O          O       0.83044   0.48873   0.19451  -0.58066
O          O       0.51872   0.41201   0.95344  -0.55251
O          O       0.53508   0.37341   0.37197  -0.55543
O          O       0.48198   0.42766   0.35923  -0.55431
O          O       0.55971   0.11908   0.18274  -0.83971
O          O       0.53515   0.16099   0.37262  -0.55658
O          O       0.45294   0.04461   0.18248  -0.55698
O          O       0.51281   0.16972   0.19397  -0.58226
O          O       0.51860   0.10641   0.95327  -0.55367
O          O       0.48441   0.05240   0.35992  -0.55219
O          O       0.51127   0.34167   0.19445  -0.58111
O          O       0.58805   0.10677   0.95347  -0.55278
O          O       0.57276   0.05438   0.35920  -0.55334
O          O       0.59078   0.04409   0.17772  -0.55380
O          O       0.95523   0.54689   0.18244  -0.55637
O          O       0.45315   0.40898   0.17811  -0.55380
O          O       0.50535   0.70729   0.70372  -0.55619
O          O       0.29281   0.49469   0.70339  -0.55705
O          O       0.50470   0.79805   0.70310  -0.55537
O          O       0.29243   0.79810   0.70372  -0.55673
O          O       0.20149   0.70708   0.70392  -0.55682
O          O       0.20197   0.49522   0.70329  -0.55440

