data_crystal

_audit_creation_method 'AiiDA-DDEC plugin'

_cell_length_a        33.15959
_cell_length_b        33.15970
_cell_length_c        11.73346

_cell_angle_alpha     90.00523
_cell_angle_beta     89.99502
_cell_angle_gamma     120.00486

_symmetry_space_group_name_Hall 'P 1'
_symmetry_space_group_name_H-M  'P 1'

loop_
_symmetry_equiv_pos_as_xyz
 'x,y,z'

loop_
_atom_site_label
_atom_site_type_symbol
_atom_site_fract_x
_atom_site_fract_y
_atom_site_fract_z
_atom_site_charge
Zn         Zn      0.88693   0.11307   0.15614   0.92849
Zn         Zn      0.83006   0.05625   0.91208   0.92237
Zn         Zn      0.61169   0.10871   0.24728   0.91903
Zn         Zn      0.88693   0.77387   0.15612   0.92924
Zn         Zn      0.55962   0.77981   0.82385   0.92790
Zn         Zn      0.94376   0.16994   0.91208   0.92240
Zn         Zn      0.83007   0.77384   0.91195   0.92154
Zn         Zn      0.55815   0.83644   0.58039   0.92067
Zn         Zn      0.94369   0.77377   0.91197   0.92248
Zn         Zn      0.89133   0.50299   0.24727   0.91908
Zn         Zn      0.22613   0.11307   0.15612   0.92926
Zn         Zn      0.22021   0.77980   0.82402   0.92805
Zn         Zn      0.22623   0.05631   0.91197   0.92238
Zn         Zn      0.16357   0.72173   0.58042   0.92080
Zn         Zn      0.22616   0.16994   0.91195   0.92153
Zn         Zn      0.49702   0.38829   0.24729   0.91892
Zn         Zn      0.22020   0.44038   0.82385   0.92785
Zn         Zn      0.27830   0.44188   0.58039   0.92068
Zn         Zn      0.89130   0.38831   0.24728   0.91903
Zn         Zn      0.16357   0.44186   0.58039   0.92071
Zn         Zn      0.49701   0.10867   0.24727   0.91914
Zn         Zn      0.27828   0.83643   0.58041   0.92078
Zn         Zn      0.61171   0.50298   0.24729   0.91894
Zn         Zn      0.55812   0.72170   0.58039   0.92059
Zn         Zn      0.55352   0.44648   0.48880   0.92828
Zn         Zn      0.55352   0.10702   0.48882   0.92864
Zn         Zn      0.89298   0.44648   0.48882   0.92864
H          H       0.77017   0.02698   0.68910   0.09995
H          H       0.68565   0.89120   0.93900   0.12537
H          H       0.76429   0.95931   0.98948   0.09747
H          H       0.69227   0.96052   0.62454   0.13443
H          H       0.91533   0.99572   0.48657   0.11407
H          H       0.91531   0.91966   0.48655   0.11401
H          H       0.63946   0.07657   0.02493   0.10089
H          H       0.77561   0.12761   0.27371   0.12415
H          H       0.70782   0.13866   0.32448   0.09744
H          H       0.70572   0.06481   0.95980   0.13437
H          H       0.84804   0.15196   0.55461   0.13022
H          H       0.85037   0.14963   0.34029   0.08912
H          H       0.92215   0.07785   0.34434   0.10323
H          H       0.92315   0.07685   0.55925   0.12157
H          H       0.90917   0.09084   0.97953   0.36993
H          H       0.97301   0.74313   0.68914   0.09978
H          H       0.10879   0.79448   0.93919   0.12562
H          H       0.04065   0.80497   0.98959   0.09723
H          H       0.03949   0.73173   0.62464   0.13441
H          H       0.00433   0.91961   0.48638   0.11384
H          H       0.08039   0.99568   0.48638   0.11390
H          H       0.92341   0.56285   0.02501   0.10106
H          H       0.87237   0.64799   0.27369   0.12498
H          H       0.86135   0.56918   0.32452   0.09979
H          H       0.93514   0.64084   0.95976   0.13418
H          H       0.84805   0.69607   0.55449   0.13068
H          H       0.85038   0.70075   0.34020   0.08923
H          H       0.92212   0.84429   0.34428   0.10362
H          H       0.92313   0.84631   0.55916   0.12155
H          H       0.90912   0.81829   0.97920   0.37011
H          H       0.25685   0.22993   0.68906   0.10000
H          H       0.20559   0.31440   0.93923   0.12557
H          H       0.19501   0.23570   0.98954   0.09708
H          H       0.26832   0.30784   0.62470   0.13418
H          H       0.08034   0.08469   0.48655   0.11384
H          H       0.00428   0.08468   0.48657   0.11411
H          H       0.43718   0.36052   0.02500   0.10087
H          H       0.35195   0.22431   0.27355   0.12268
H          H       0.43081   0.29207   0.32448   0.09762
H          H       0.35915   0.29430   0.95977   0.13413
H          H       0.30393   0.15196   0.55449   0.13073
H          H       0.29925   0.14963   0.34020   0.08937
H          H       0.15571   0.07788   0.34428   0.10364
H          H       0.15369   0.07687   0.55916   0.12155
H          H       0.18171   0.09089   0.97920   0.36999
H          H       0.97302   0.22983   0.68910   0.09984
H          H       0.10880   0.31435   0.93900   0.12551
H          H       0.04069   0.23571   0.98948   0.09721
H          H       0.03948   0.30774   0.62454   0.13445
H          H       0.92343   0.36054   0.02493   0.10096
H          H       0.87239   0.22439   0.27371   0.12406
H          H       0.86134   0.29218   0.32448   0.09742
H          H       0.93519   0.29429   0.95980   0.13442
H          H       0.25687   0.02700   0.68914   0.09986
H          H       0.20552   0.89122   0.93919   0.12543
H          H       0.19503   0.95935   0.98959   0.09710
H          H       0.26827   0.96051   0.62464   0.13451
H          H       0.43715   0.07659   0.02501   0.10100
H          H       0.35201   0.12764   0.27369   0.12508
H          H       0.43082   0.13865   0.32452   0.09981
H          H       0.35916   0.06486   0.95976   0.13413
H          H       0.77007   0.74315   0.68905   0.10018
H          H       0.68561   0.79442   0.93923   0.12539
H          H       0.76430   0.80499   0.98954   0.09727
H          H       0.69216   0.73169   0.62470   0.13410
H          H       0.63948   0.56282   0.02500   0.10078
H          H       0.77569   0.64805   0.27355   0.12543
H          H       0.70793   0.56919   0.32448   0.09753
H          H       0.70570   0.64085   0.95977   0.13412
H          H       0.58222   0.32912   0.82328   0.11421
H          H       0.58223   0.25312   0.82331   0.11410
H          H       0.30676   0.41049   0.35705   0.09985
H          H       0.44250   0.46107   0.60686   0.12337
H          H       0.37485   0.47241   0.65693   0.10138
H          H       0.37281   0.39828   0.29272   0.13453
H          H       0.51467   0.48533   0.88701   0.13037
H          H       0.51705   0.48296   0.67302   0.08925
H          H       0.58879   0.41121   0.67696   0.10172
H          H       0.58984   0.41016   0.89150   0.12122
H          H       0.57620   0.42380   0.31464   0.37028
H          H       0.67091   0.25308   0.82333   0.11403
H          H       0.74692   0.32910   0.82333   0.11416
H          H       0.58952   0.89625   0.35703   0.10009
H          H       0.53899   0.98143   0.60698   0.12465
H          H       0.52764   0.90244   0.65699   0.09798
H          H       0.60172   0.97453   0.29276   0.13449
H          H       0.51466   0.02930   0.88701   0.13039
H          H       0.51703   0.03404   0.67302   0.08950
H          H       0.58877   0.17755   0.67695   0.10142
H          H       0.58982   0.17966   0.89148   0.12143
H          H       0.57613   0.15229   0.31460   0.37036
H          H       0.74688   0.41777   0.82331   0.11416
H          H       0.67088   0.41779   0.82328   0.11414
H          H       0.10379   0.69328   0.35717   0.10008
H          H       0.01855   0.55752   0.60688   0.12312
H          H       0.09756   0.62516   0.65703   0.09770
H          H       0.02550   0.62723   0.29281   0.13406
H          H       0.97071   0.48534   0.88701   0.13053
H          H       0.96596   0.48298   0.67302   0.08972
H          H       0.82246   0.41123   0.67695   0.10119
H          H       0.82035   0.41018   0.89148   0.12131
H          H       0.84771   0.42387   0.31460   0.36997
H          H       0.58951   0.69324   0.35705   0.09986
H          H       0.53893   0.55750   0.60686   0.12597
H          H       0.52759   0.62515   0.65693   0.10114
H          H       0.60172   0.62719   0.29272   0.13454
H          H       0.10375   0.41049   0.35703   0.09997
H          H       0.01857   0.46102   0.60698   0.12479
H          H       0.09756   0.47236   0.65699   0.09811
H          H       0.02547   0.39828   0.29276   0.13440
H          H       0.30672   0.89622   0.35717   0.09993
H          H       0.44248   0.98146   0.60688   0.12324
H          H       0.37484   0.90245   0.65703   0.09778
H          H       0.37277   0.97450   0.29281   0.13403
H          H       0.24891   0.66249   0.15578   0.11432
H          H       0.24891   0.58644   0.15578   0.11443
H          H       0.18116   0.81884   0.22313   0.13058
H          H       0.18344   0.81657   0.00895   0.08928
H          H       0.25522   0.74478   0.01251   0.10279
H          H       0.25628   0.74372   0.22719   0.12120
H          H       0.24303   0.75697   0.64916   0.37237
H          H       0.33748   0.58645   0.15573   0.11409
H          H       0.41355   0.66252   0.15573   0.11415
H          H       0.18120   0.36235   0.22305   0.13089
H          H       0.18345   0.36689   0.00889   0.08944
H          H       0.25521   0.51048   0.01251   0.10252
H          H       0.25629   0.51258   0.22717   0.12088
H          H       0.24298   0.48598   0.64920   0.36889
H          H       0.41356   0.75109   0.15578   0.11450
H          H       0.33751   0.75109   0.15578   0.11414
H          H       0.63766   0.81880   0.22305   0.13098
H          H       0.63311   0.81655   0.00889   0.08958
H          H       0.48952   0.74479   0.01251   0.10246
H          H       0.48742   0.74371   0.22717   0.12077
H          H       0.51402   0.75702   0.64920   0.36862
C          C       0.88526   0.11474   0.70203   0.60616
C          C       0.88560   0.11440   0.57360   0.03268
C          C       0.68310   0.92088   0.77782   0.01612
C          C       0.85937   0.01027   0.09180   0.60661
C          C       0.87900   0.96095   0.22678   0.12876
C          C       0.63589   0.88031   0.74610   0.58827
C          C       0.75009   0.99619   0.74152   0.08608
C          C       0.86383   0.96966   0.12457  -0.23247
C          C       0.70367   0.92069   0.88174  -0.14863
C          C       0.74676   0.95840   0.91039   0.08182
C          C       0.70720   0.95947   0.70624  -0.14642
C          C       0.90666   0.09334   0.51362  -0.17206
C          C       0.90630   0.09370   0.39498   0.10891
C          C       0.90569   0.97300   0.41304  -0.06091
C          C       0.86480   0.13520   0.51140  -0.17861
C          C       0.86593   0.13407   0.39303   0.09218
C          C       0.85932   0.84911   0.09176   0.60776
C          C       0.87900   0.91810   0.22676   0.12951
C          C       0.86382   0.89420   0.12454  -0.23261
C          C       0.90569   0.93275   0.41303  -0.05885
C          C       0.74563   0.09543   0.11248   0.01577
C          C       0.78620   0.08909   0.07902   0.58865
C          C       0.67035   0.08728   0.07695   0.08700
C          C       0.74607   0.11621   0.21661  -0.14613
C          C       0.70856   0.12191   0.24543   0.08125
C          C       0.70690   0.08090   0.04145  -0.14560
C          C       0.88521   0.77049   0.70191   0.60718
C          C       0.88558   0.77120   0.57350   0.03309
C          C       0.07912   0.76222   0.77795   0.01630
C          C       0.98969   0.84917   0.09169   0.60716
C          C       0.03908   0.91806   0.22672   0.12906
C          C       0.11970   0.75562   0.74619   0.58880
C          C       0.00380   0.75387   0.74158   0.08619
C          C       0.03034   0.89419   0.12448  -0.23183
C          C       0.07929   0.78298   0.88190  -0.14874
C          C       0.04158   0.78836   0.91049   0.08196
C          C       0.04053   0.74771   0.70636  -0.14617
C          C       0.90663   0.81332   0.51355  -0.17136
C          C       0.90629   0.81260   0.39492   0.10816
C          C       0.02704   0.93271   0.41288  -0.05998
C          C       0.86479   0.72959   0.51130  -0.17922
C          C       0.86593   0.73186   0.39294   0.09252
C          C       0.15083   0.01030   0.09169   0.60714
C          C       0.08194   0.96092   0.22671   0.12904
C          C       0.10581   0.96965   0.12447  -0.23176
C          C       0.06729   0.97296   0.41288  -0.06001
C          C       0.90454   0.65018   0.11242   0.01617
C          C       0.91088   0.69709   0.07889   0.58801
C          C       0.91271   0.58304   0.07700   0.08681
C          C       0.88377   0.62986   0.21658  -0.14769
C          C       0.87810   0.58666   0.24546   0.07950
C          C       0.91907   0.62596   0.04143  -0.14555
C          C       0.22951   0.11480   0.70191   0.60725
C          C       0.22881   0.11442   0.57350   0.03311
C          C       0.23781   0.31695   0.77800   0.01675
C          C       0.15089   0.14069   0.09176   0.60777
C          C       0.08190   0.12101   0.22676   0.12960
C          C       0.24444   0.36415   0.74623   0.58864
C          C       0.24611   0.24997   0.74152   0.08632
C          C       0.10580   0.13619   0.12453  -0.23273
C          C       0.21703   0.29636   0.88190  -0.14931
C          C       0.21162   0.25326   0.91045   0.08254
C          C       0.25229   0.29287   0.70635  -0.14637
C          C       0.18668   0.09337   0.51355  -0.17153
C          C       0.18739   0.09372   0.39492   0.10808
C          C       0.06725   0.09432   0.41302  -0.05874
C          C       0.27041   0.13521   0.51130  -0.17915
C          C       0.26814   0.13407   0.39294   0.09249
C          C       0.98973   0.14063   0.09180   0.60675
C          C       0.03905   0.12101   0.22678   0.12880
C          C       0.03033   0.13618   0.12457  -0.23224
C          C       0.02700   0.09431   0.41304  -0.06103
C          C       0.34980   0.25437   0.11244   0.01642
C          C       0.30288   0.21383   0.07893   0.58862
C          C       0.41697   0.32963   0.07698   0.08703
C          C       0.37013   0.25388   0.21655  -0.14621
C          C       0.41334   0.29137   0.24543   0.08160
C          C       0.37403   0.29310   0.04142  -0.14562
C          C       0.07912   0.31691   0.77782   0.01622
C          C       0.11969   0.36411   0.74610   0.58809
C          C       0.00381   0.24992   0.74152   0.08609
C          C       0.07931   0.29634   0.88174  -0.14870
C          C       0.04161   0.25324   0.91039   0.08212
C          C       0.04054   0.29280   0.70625  -0.14622
C          C       0.90457   0.25437   0.11248   0.01585
C          C       0.91091   0.21380   0.07902   0.58856
C          C       0.91272   0.32965   0.07695   0.08695
C          C       0.88379   0.25393   0.21661  -0.14617
C          C       0.87810   0.29144   0.24543   0.08117
C          C       0.91911   0.29311   0.04145  -0.14556
C          C       0.23778   0.92089   0.77795   0.01624
C          C       0.24439   0.88030   0.74619   0.58876
C          C       0.24614   0.99621   0.74158   0.08640
C          C       0.21703   0.92071   0.88190  -0.14863
C          C       0.21164   0.95842   0.91049   0.08196
C          C       0.25229   0.95947   0.70636  -0.14611
C          C       0.34982   0.09546   0.11242   0.01626
C          C       0.30290   0.08912   0.07889   0.58803
C          C       0.41696   0.08730   0.07699   0.08666
C          C       0.37014   0.11623   0.21658  -0.14772
C          C       0.41334   0.12191   0.24546   0.07957
C          C       0.37404   0.08093   0.04143  -0.14561
C          C       0.68305   0.76219   0.77800   0.01644
C          C       0.63586   0.75556   0.74623   0.58882
C          C       0.75003   0.75389   0.74152   0.08614
C          C       0.70364   0.78297   0.88190  -0.14899
C          C       0.74675   0.78838   0.91045   0.08217
C          C       0.70713   0.74772   0.70635  -0.14644
C          C       0.74563   0.65020   0.11244   0.01631
C          C       0.78617   0.69712   0.07893   0.58849
C          C       0.67037   0.58303   0.07698   0.08702
C          C       0.74612   0.62987   0.21655  -0.14832
C          C       0.70863   0.58666   0.24543   0.08169
C          C       0.70690   0.62597   0.04142  -0.14566
C          C       0.55226   0.44774   0.03515   0.60303
C          C       0.55228   0.44772   0.90648   0.03623
C          C       0.52651   0.34332   0.42559   0.60490
C          C       0.54607   0.29445   0.56323   0.12940
C          C       0.53125   0.30320   0.46045  -0.23383
C          C       0.57332   0.42669   0.84618  -0.17390
C          C       0.57295   0.42705   0.72758   0.10782
C          C       0.57254   0.30639   0.74973  -0.05967
C          C       0.53147   0.46853   0.84421  -0.18209
C          C       0.53260   0.46740   0.72579   0.09416
C          C       0.52651   0.18313   0.42562   0.60476
C          C       0.54607   0.25159   0.56326   0.12964
C          C       0.53125   0.22799   0.46050  -0.23356
C          C       0.57254   0.26614   0.74975  -0.05940
C          C       0.41260   0.42882   0.44581   0.01756
C          C       0.45306   0.42206   0.41414   0.58782
C          C       0.33756   0.42109   0.40932   0.08592
C          C       0.41304   0.44980   0.54958  -0.14676
C          C       0.37559   0.45562   0.57799   0.07840
C          C       0.37404   0.41449   0.37423  -0.14705
C          C       0.55223   0.10448   0.03513   0.60383
C          C       0.55226   0.10453   0.90647   0.03690
C          C       0.65664   0.18316   0.42553   0.60495
C          C       0.70555   0.25160   0.56323   0.12941
C          C       0.69678   0.22802   0.46044  -0.23367
C          C       0.57329   0.14660   0.84618  -0.17480
C          C       0.57293   0.14586   0.72758   0.10838
C          C       0.69362   0.26613   0.74976  -0.05946
C          C       0.53146   0.06290   0.84420  -0.18217
C          C       0.53258   0.06516   0.72579   0.09342
C          C       0.81684   0.34336   0.42553   0.60519
C          C       0.74841   0.29446   0.56323   0.12949
C          C       0.77199   0.30322   0.46044  -0.23369
C          C       0.73388   0.30638   0.74976  -0.05944
C          C       0.57120   0.98377   0.44587   0.01759
C          C       0.57796   0.03099   0.41419   0.58721
C          C       0.57892   0.91646   0.40932   0.08597
C          C       0.55024   0.96324   0.54965  -0.14799
C          C       0.54441   0.91996   0.57804   0.08069
C          C       0.58552   0.95954   0.37426  -0.14682
C          C       0.89552   0.44777   0.03513   0.60380
C          C       0.89547   0.44774   0.90647   0.03681
C          C       0.81687   0.47349   0.42562   0.60459
C          C       0.74841   0.45393   0.56326   0.12967
C          C       0.77201   0.46876   0.46050  -0.23341
C          C       0.85341   0.42671   0.84618  -0.17511
C          C       0.85414   0.42707   0.72758   0.10838
C          C       0.73386   0.42746   0.74975  -0.05943
C          C       0.93710   0.46855   0.84420  -0.18180
C          C       0.93484   0.46742   0.72579   0.09344
C          C       0.65668   0.47350   0.42559   0.60486
C          C       0.70555   0.45393   0.56323   0.12931
C          C       0.69681   0.46875   0.46045  -0.23376
C          C       0.69361   0.42746   0.74973  -0.05983
C          C       0.01625   0.58743   0.44586   0.01744
C          C       0.96903   0.54697   0.41418   0.58725
C          C       0.08356   0.66247   0.40941   0.08541
C          C       0.03677   0.58699   0.54963  -0.14655
C          C       0.08004   0.62442   0.57808   0.08142
C          C       0.04048   0.62600   0.37430  -0.14624
C          C       0.57118   0.58741   0.44581   0.01744
C          C       0.57794   0.54695   0.41414   0.58784
C          C       0.57892   0.66244   0.40932   0.08606
C          C       0.55021   0.58697   0.54958  -0.14936
C          C       0.54438   0.62441   0.57799   0.07858
C          C       0.58551   0.62596   0.37423  -0.14687
C          C       0.01623   0.42880   0.44587   0.01772
C          C       0.96902   0.42204   0.41419   0.58748
C          C       0.08354   0.42108   0.40932   0.08608
C          C       0.03676   0.44976   0.54965  -0.14801
C          C       0.08004   0.45559   0.57804   0.08063
C          C       0.04046   0.41448   0.37426  -0.14692
C          C       0.41257   0.98375   0.44586   0.01723
C          C       0.45303   0.03097   0.41417   0.58734
C          C       0.33754   0.91644   0.40941   0.08544
C          C       0.41301   0.96323   0.54963  -0.14637
C          C       0.37558   0.91996   0.57808   0.08144
C          C       0.37400   0.95952   0.37429  -0.14623
C          C       0.21874   0.78126   0.37069   0.60605
C          C       0.21875   0.78125   0.24209   0.03514
C          C       0.19211   0.67638   0.76115   0.60611
C          C       0.21212   0.62749   0.89657   0.12906
C          C       0.19658   0.63595   0.79464  -0.23339
C          C       0.23977   0.76023   0.18175  -0.17252
C          C       0.23938   0.76062   0.06314   0.10814
C          C       0.23928   0.63978   0.08226  -0.06122
C          C       0.19793   0.80207   0.17995  -0.18074
C          C       0.19903   0.80097   0.06148   0.09349
C          C       0.19215   0.51576   0.76113   0.60603
C          C       0.21213   0.58466   0.89656   0.12851
C          C       0.19660   0.56066   0.79462  -0.23299
C          C       0.23928   0.59952   0.08225  -0.06073
C          C       0.21876   0.43747   0.37068   0.60679
C          C       0.21877   0.43751   0.24206   0.03449
C          C       0.32361   0.51574   0.76115   0.60605
C          C       0.37254   0.58462   0.89658   0.12882
C          C       0.36408   0.56062   0.79466  -0.23362
C          C       0.23977   0.47955   0.18173  -0.17256
C          C       0.23937   0.47878   0.06310   0.10830
C          C       0.36022   0.59953   0.08222  -0.06053
C          C       0.19795   0.39588   0.17988  -0.18094
C          C       0.19904   0.39808   0.06140   0.09337
C          C       0.48426   0.67639   0.76115   0.60627
C          C       0.41538   0.62746   0.89658   0.12921
C          C       0.43938   0.63592   0.79466  -0.23375
C          C       0.40048   0.63978   0.08222  -0.06069
C          C       0.56253   0.78124   0.37068   0.60678
C          C       0.56250   0.78123   0.24206   0.03464
C          C       0.48424   0.80785   0.76113   0.60611
C          C       0.41535   0.78788   0.89656   0.12858
C          C       0.43934   0.80340   0.79462  -0.23311
C          C       0.52045   0.76023   0.18173  -0.17269
C          C       0.52122   0.76063   0.06310   0.10811
C          C       0.40048   0.76072   0.08225  -0.06096
C          C       0.60413   0.80205   0.17988  -0.18080
C          C       0.60192   0.80096   0.06141   0.09337
C          C       0.32362   0.80789   0.76115   0.60619
C          C       0.37251   0.78789   0.89657   0.12909
C          C       0.36406   0.80342   0.79464  -0.23350
C          C       0.36022   0.76072   0.08226  -0.06085
S          S       0.84984   0.92494   0.02750   0.17921
S          S       0.07506   0.92494   0.02739   0.17887
S          S       0.07506   0.15017   0.02750   0.17935
S          S       0.51754   0.25873   0.36331   0.18397
S          S       0.74123   0.25877   0.36328   0.18410
S          S       0.74127   0.48246   0.36331   0.18398
S          S       0.18216   0.59108   0.69796   0.18122
S          S       0.40896   0.59105   0.69799   0.18167
S          S       0.40892   0.81784   0.69796   0.18133
N          N       0.88622   0.11378   0.33547  -0.20370
N          N       0.76975   0.99589   0.84201  -0.22013
N          N       0.67105   0.10758   0.17720  -0.21794
N          N       0.88621   0.77244   0.33539  -0.20373
N          N       0.00410   0.77386   0.84205  -0.22049
N          N       0.89242   0.56347   0.17728  -0.21758
N          N       0.22756   0.11379   0.33539  -0.20365
N          N       0.22612   0.23028   0.84198  -0.22032
N          N       0.43654   0.32890   0.17726  -0.21758
N          N       0.00411   0.23025   0.84201  -0.22057
N          N       0.89242   0.32895   0.17721  -0.21788
N          N       0.22615   0.99590   0.84205  -0.22079
N          N       0.43653   0.10758   0.17728  -0.21763
N          N       0.76972   0.77388   0.84198  -0.21977
N          N       0.67110   0.56346   0.17726  -0.21771
N          N       0.55288   0.44713   0.66811  -0.20469
N          N       0.33814   0.44134   0.50957  -0.21990
N          N       0.55286   0.10571   0.66811  -0.20443
N          N       0.55868   0.89679   0.50957  -0.21951
N          N       0.89429   0.44714   0.66811  -0.20444
N          N       0.10321   0.66188   0.50966  -0.21937
N          N       0.55867   0.66186   0.50957  -0.21991
N          N       0.10321   0.44133   0.50957  -0.21959
N          N       0.33813   0.89679   0.50965  -0.21957
N          N       0.21930   0.78070   0.00365  -0.20435
N          N       0.21929   0.43862   0.00357  -0.20430
N          N       0.56139   0.78071   0.00357  -0.20422
O          O       0.89220   0.10780   0.97794  -0.84235
O          O       0.62223   0.88064   0.64440  -0.55498
O          O       0.85047   0.08023   0.74793  -0.54754
O          O       0.84602   0.00976   0.98819  -0.58267
O          O       0.89291   0.99024   0.32009  -0.09879
O          O       0.86888   0.04130   0.16619  -0.54258
O          O       0.61452   0.85054   0.82307  -0.55045
O          O       0.84589   0.83621   0.98820  -0.58318
O          O       0.89291   0.90273   0.32007  -0.10013
O          O       0.86887   0.82764   0.16614  -0.54279
O          O       0.91977   0.14953   0.74793  -0.54721
O          O       0.78570   0.07561   0.97664  -0.55532
O          O       0.81624   0.09733   0.15510  -0.55005
O          O       0.55918   0.11835   0.31280  -0.84156
O          O       0.59200   0.04469   0.31258  -0.55579
O          O       0.58702   0.10465   0.08091  -0.54951
O          O       0.65799   0.17131   0.32112  -0.58103
O          O       0.95870   0.13112   0.16619  -0.54261
O          O       0.90267   0.18376   0.15509  -0.55003
O          O       0.89219   0.78435   0.97824  -0.84235
O          O       0.11936   0.74160   0.64450  -0.55561
O          O       0.91961   0.77004   0.74790  -0.54779
O          O       0.99014   0.83637   0.98799  -0.58337
O          O       0.00978   0.90267   0.31998  -0.09966
O          O       0.95872   0.82763   0.16618  -0.54270
O          O       0.14948   0.76405   0.82313  -0.55048
O          O       0.16363   0.00986   0.98800  -0.58356
O          O       0.09733   0.99022   0.31998  -0.09949
O          O       0.17237   0.04128   0.16618  -0.54262
O          O       0.85049   0.77037   0.74778  -0.54827
O          O       0.92434   0.71003   0.97647  -0.55477
O          O       0.90267   0.71891   0.15496  -0.55014
O          O       0.88165   0.44082   0.31280  -0.84115
O          O       0.95533   0.54732   0.31256  -0.55579
O          O       0.89531   0.48236   0.08090  -0.54955
O          O       0.82873   0.48669   0.32122  -0.58132
O          O       0.81624   0.71890   0.15497  -0.55044
O          O       0.21565   0.10781   0.97825  -0.84222
O          O       0.25849   0.37782   0.64458  -0.55531
O          O       0.22962   0.14951   0.74778  -0.54790
O          O       0.16379   0.15411   0.98819  -0.58315
O          O       0.09727   0.10709   0.32007  -0.10052
O          O       0.17236   0.13113   0.16614  -0.54290
O          O       0.23597   0.38548   0.82314  -0.55073
O          O       0.99025   0.15398   0.98819  -0.58262
O          O       0.00976   0.10709   0.32009  -0.09851
O          O       0.22997   0.08040   0.74790  -0.54815
O          O       0.28989   0.21438   0.97659  -0.55495
O          O       0.28110   0.18377   0.15497  -0.55038
O          O       0.55924   0.44077   0.31282  -0.84097
O          O       0.45272   0.40803   0.31251  -0.55614
O          O       0.51765   0.41294   0.08093  -0.54909
O          O       0.51328   0.34196   0.32120  -0.58125
O          O       0.28109   0.09733   0.15496  -0.55007
O          O       0.11936   0.37777   0.64440  -0.55497
O          O       0.14946   0.38548   0.82307  -0.55026
O          O       0.92440   0.21430   0.97664  -0.55521
O          O       0.95531   0.40801   0.31258  -0.55581
O          O       0.89535   0.41298   0.08091  -0.54943
O          O       0.82869   0.34201   0.32112  -0.58109
O          O       0.25840   0.88064   0.64451  -0.55549
O          O       0.23596   0.85052   0.82313  -0.55053
O          O       0.28997   0.07567   0.97647  -0.55481
O          O       0.45268   0.04467   0.31256  -0.55583
O          O       0.51764   0.10470   0.08090  -0.54953
O          O       0.51331   0.17127   0.32122  -0.58130
O          O       0.62218   0.74151   0.64458  -0.55536
O          O       0.61452   0.76404   0.82314  -0.55084
O          O       0.78562   0.71011   0.97659  -0.55508
O          O       0.59198   0.54728   0.31251  -0.55606
O          O       0.58706   0.48235   0.08093  -0.54896
O          O       0.65804   0.48672   0.32120  -0.58110
O          O       0.55964   0.32360   0.65685  -0.09958
O          O       0.53549   0.37466   0.49850  -0.54056
O          O       0.55965   0.23603   0.65688  -0.09948
O          O       0.53549   0.16077   0.49853  -0.54065
O          O       0.48285   0.43057   0.49118  -0.54974
O          O       0.22603   0.45208   0.64623  -0.84252
O          O       0.25351   0.43765   0.41656  -0.54780
O          O       0.32492   0.50312   0.65760  -0.58179
O          O       0.62534   0.46451   0.49850  -0.54070
O          O       0.56944   0.51715   0.49118  -0.54995
O          O       0.67640   0.23603   0.65686  -0.09974
O          O       0.62530   0.16079   0.49843  -0.54064
O          O       0.76397   0.32360   0.65686  -0.09944
O          O       0.83921   0.37470   0.49843  -0.54072
O          O       0.56944   0.05228   0.49122  -0.54997
O          O       0.54793   0.77397   0.64623  -0.84227
O          O       0.56234   0.81582   0.41655  -0.54812
O          O       0.49687   0.82178   0.65759  -0.58143
O          O       0.48284   0.05227   0.49119  -0.54972
O          O       0.76398   0.44036   0.65688  -0.09926
O          O       0.83923   0.46451   0.49853  -0.54049
O          O       0.67641   0.44036   0.65685  -0.09971
O          O       0.94773   0.51716   0.49119  -0.54973
O          O       0.22608   0.77393   0.64627  -0.84700
O          O       0.18417   0.74649   0.41655  -0.54772
O          O       0.17816   0.67506   0.65764  -0.58108
O          O       0.94773   0.43056   0.49122  -0.55011
O          O       0.56235   0.74649   0.41656  -0.54778
O          O       0.49688   0.67508   0.65760  -0.58186
O          O       0.18418   0.43767   0.41655  -0.54803
O          O       0.17823   0.50313   0.65759  -0.58142
O          O       0.25351   0.81583   0.41655  -0.54755
O          O       0.32494   0.82184   0.65764  -0.58107
O          O       0.22645   0.65702   0.98934  -0.09729
O          O       0.20210   0.70789   0.83443  -0.54065
O          O       0.22645   0.56946   0.98932  -0.09690
O          O       0.20214   0.49425   0.83439  -0.54053
O          O       0.29211   0.79790   0.83442  -0.54077
O          O       0.34300   0.56944   0.98931  -0.09738
O          O       0.29209   0.49424   0.83438  -0.54040
O          O       0.43056   0.65701   0.98931  -0.09711
O          O       0.50576   0.70791   0.83438  -0.54037
O          O       0.43055   0.77355   0.98932  -0.09674
O          O       0.50576   0.79787   0.83439  -0.54046
O          O       0.34298   0.77355   0.98934  -0.09762

