data_crystal

_cell_length_a 10.07040
_cell_length_b 14.25210
_cell_length_c 17.56440
_cell_angle_alpha 90.00000
_cell_angle_beta  94.28100
_cell_angle_gamma 90.00000

_symmetry_space_group_name_	'P 1'
_symmetry_space_group_name_H-M	'P 1'

loop_
_symmetry_equiv_pos_as_xyz
  x,y,z

loop_
_atom_site_label
_atom_site_type_symbol
_atom_site_fract_x
_atom_site_fract_y
_atom_site_fract_z
_atom_site_charge
Ca	Ca	0.52837 0.10559 0.55831 1.50000
Ca	Ca	0.40828 0.34702 0.53009 1.50600
S 	S 	0.28004 0.25166 0.30208 0.03400
S 	S 	0.18623 0.06599 0.74929 0.06000
O 	O 	0.41570 0.20431 0.45473 -0.59500
O 	O 	0.42690 0.05209 0.43534 -0.64700
O 	O 	0.07470 0.23231 0.10502 -0.58000
O 	O 	0.05680 0.09607 0.95181 -0.54000
C 	C 	0.31480 0.14308 0.33975 -0.15800
O 	O 	0.09650 0.96937 0.88455 -0.50000
C 	C 	0.39050 0.13302 0.41410 0.44400
O 	O 	0.32660 0.10932 0.61072 -0.49400
C 	C 	0.19140 0.20360 0.22468 -0.10800
C 	C 	0.13240 0.26670 0.16487 0.36700
O 	O 	0.14300 0.35331 0.17565 -0.45100
C 	C 	0.21680 0.17410 0.71116 -0.11600
C 	C 	0.14070 0.21060 0.82770 0.01200
H 	H 	0.11810 0.24950 0.86730 0.00900
C 	C 	0.13380 0.11580 0.83039 -0.14500
C 	C 	0.18580 0.24420 0.75860 -0.01900
H 	H 	0.19340 0.30750 0.74690 0.03800
C 	C 	0.25890 0.07290 0.29429 0.00700
H 	H 	0.26740 0.00940 0.30570 0.02200
O 	O 	0.27340 0.26155 0.60578 -0.49400
C 	C 	0.18750 0.10800 0.22855 -0.02000
H 	H 	0.14270 0.07030 0.19180 0.03000
C 	C 	0.09070 0.05580 0.89355 0.43900
C 	C 	0.27670 0.18250 0.63629 0.40300
Ca	Ca	0.97163 0.60559 0.94169 1.50000
Ca	Ca	0.09172 0.84702 0.96991 1.50400
S 	S 	0.21996 0.75166 0.19792 0.03300
S 	S 	0.31377 0.56599 0.75071 0.05700
O 	O 	0.08430 0.70431 0.04527 -0.59400
O 	O 	0.07310 0.55209 0.06466 -0.64600
O 	O 	0.42530 0.73231 0.39498 -0.58000
O 	O 	0.44320 0.59607 0.54819 -0.54000
C 	C 	0.18520 0.64308 0.16025 -0.15700
O 	O 	0.40350 0.46937 0.61545 -0.49500
C 	C 	0.10950 0.63302 0.08590 0.44400
O 	O 	0.17340 0.60932 0.88928 -0.49500
C 	C 	0.30860 0.70360 0.27532 -0.10900
C 	C 	0.36760 0.76670 0.33513 0.36700
O 	O 	0.35700 0.85331 0.32435 -0.45100
C 	C 	0.28320 0.67410 0.78884 -0.11600
C 	C 	0.35930 0.71060 0.67230 0.01100
H 	H 	0.38190 0.74950 0.63270 0.00900
C 	C 	0.36620 0.61580 0.66961 -0.14300
C 	C 	0.31420 0.74420 0.74140 -0.01900
H 	H 	0.30660 0.80750 0.75310 0.03700
C 	C 	0.24110 0.57290 0.20571 0.00700
H 	H 	0.23260 0.50940 0.19430 0.02200
O 	O 	0.22660 0.76155 0.89422 -0.49500
C 	C 	0.31250 0.60800 0.27145 -0.01900
H 	H 	0.35730 0.57030 0.30820 0.03000
C 	C 	0.40930 0.55580 0.60645 0.43300
C 	C 	0.22330 0.68250 0.86371 0.40300
Ca	Ca	0.47163 0.89441 0.44169 1.49900
Ca	Ca	0.59172 0.65298 0.46991 1.50500
S 	S 	0.71996 0.74834 0.69792 0.03300
S 	S 	0.81377 0.93401 0.25071 0.05900
O 	O 	0.58430 0.79569 0.54527 -0.59500
O 	O 	0.57310 0.94791 0.56466 -0.64700
O 	O 	0.92530 0.76769 0.89498 -0.58000
O 	O 	0.94320 0.90393 0.04819 -0.54000
C 	C 	0.68520 0.85692 0.66025 -0.15800
O 	O 	0.90350 0.03063 0.11545 -0.50000
C 	C 	0.60950 0.86698 0.58590 0.44400
O 	O 	0.67340 0.89068 0.38928 -0.49400
C 	C 	0.80860 0.79640 0.77532 -0.10800
C 	C 	0.86760 0.73330 0.83513 0.36700
O 	O 	0.85700 0.64669 0.82435 -0.45100
C 	C 	0.78320 0.82590 0.28884 -0.11600
C 	C 	0.85930 0.78940 0.17230 0.01200
H 	H 	0.88190 0.75050 0.13270 0.00900
C 	C 	0.86620 0.88420 0.16961 -0.14500
C 	C 	0.81420 0.75580 0.24140 -0.01900
H 	H 	0.80660 0.69250 0.25310 0.03800
C 	C 	0.74110 0.92710 0.70571 0.00700
H 	H 	0.73260 0.99060 0.69430 0.02200
O 	O 	0.72660 0.73845 0.39422 -0.49400
C 	C 	0.81250 0.89200 0.77145 -0.02000
H 	H 	0.85730 0.92970 0.80820 0.03000
C 	C 	0.90930 0.94420 0.10645 0.43900
C 	C 	0.72330 0.81750 0.36371 0.40300
Ca	Ca	0.02837 0.39441 0.05831 1.50000
Ca	Ca	0.90828 0.15298 0.03009 1.50400
S 	S 	0.78004 0.24834 0.80208 0.03300
S 	S 	0.68623 0.43401 0.24929 0.05700
O 	O 	0.91570 0.29569 0.95473 -0.59400
O 	O 	0.92690 0.44791 0.93534 -0.64600
O 	O 	0.57470 0.26769 0.60502 -0.58000
O 	O 	0.55680 0.40393 0.45181 -0.54000
C 	C 	0.81480 0.35692 0.83975 -0.15700
O 	O 	0.59650 0.53063 0.38455 -0.49500
C 	C 	0.89050 0.36698 0.91410 0.44400
O 	O 	0.82660 0.39068 0.11072 -0.49500
C 	C 	0.69140 0.29640 0.72468 -0.10900
C 	C 	0.63240 0.23330 0.66487 0.36700
O 	O 	0.64300 0.14669 0.67565 -0.45100
C 	C 	0.71680 0.32590 0.21116 -0.11600
C 	C 	0.64070 0.28940 0.32770 0.01100
H 	H 	0.61810 0.25050 0.36730 0.00900
C 	C 	0.63380 0.38420 0.33039 -0.14300
C 	C 	0.68580 0.25580 0.25860 -0.01900
H 	H 	0.69340 0.19250 0.24690 0.03700
C 	C 	0.75890 0.42710 0.79429 0.00700
H 	H 	0.76740 0.49060 0.80570 0.02200
O 	O 	0.77340 0.23845 0.10578 -0.49500
C 	C 	0.68750 0.39200 0.72855 -0.01900
H 	H 	0.64270 0.42970 0.69180 0.03000
C 	C 	0.59070 0.44420 0.39355 0.43300
C 	C 	0.77670 0.31750 0.13629 0.40300
