data_crystal

_cell_length_a 8.13090
_cell_length_b 10.51080
_cell_length_c 11.41940
_cell_angle_alpha 62.59900
_cell_angle_beta  84.40850
_cell_angle_gamma 77.77700

_symmetry_space_group_name_	'P 1'
_symmetry_space_group_name_H-M	'P 1'

loop_
_symmetry_equiv_pos_as_xyz
  x,y,z

loop_
_atom_site_label
_atom_site_type_symbol
_atom_site_fract_x
_atom_site_fract_y
_atom_site_fract_z
_atom_site_charge
Co	Co	0.48993 0.68825 0.50758 1.10400
Co	Co	0.98993 0.19583 0.49242 1.08300
H 	H 	0.58780 0.56990 0.79900 -0.02700
H 	H 	0.40550 0.37810 0.63500 -0.04100
H 	H 	0.58350 0.37330 0.00140 0.08100
H 	H 	0.39860 0.17880 0.83000 0.08300
H 	H 	0.53810 0.21190 0.18560 0.05100
H 	H 	0.42300 0.98670 0.01120 0.06200
H 	H 	0.53670 0.00960 0.38380 -0.02600
H 	H 	0.41900 0.79290 0.21600 -0.00100
H 	H 	0.70240 0.39430 0.54160 -0.18500
H 	H 	0.08780 0.36890 0.20100 -0.02000
H 	H 	0.90550 0.01310 0.36500 -0.04500
H 	H 	0.08350 0.37470 0.99860 0.07100
H 	H 	0.89860 0.00880 0.17000 0.05500
H 	H 	0.03810 0.39750 0.81440 0.07400
H 	H 	0.92300 0.99790 0.98880 0.11400
H 	H 	0.03670 0.39340 0.61620 -0.03700
H 	H 	0.91900 0.00890 0.78400 -0.04200
H 	H 	0.20240 0.93590 0.45840 -0.15500
C 	C 	0.54810 0.49039 0.80502 0.09700
C 	C 	0.44190 0.37768 0.70984 0.09900
C 	C 	0.54600 0.37167 0.92786 -0.16200
C 	C 	0.43710 0.25762 0.82676 -0.17400
C 	C 	0.48900 0.25145 0.94150 0.09600
C 	C 	0.48320 0.12310 0.07220 -0.01200
C 	C 	0.51560 0.12721 0.18878 -0.09300
C 	C 	0.44670 0.99463 0.08534 -0.06200
C 	C 	0.51370 0.00503 0.30774 0.02100
C 	C 	0.44570 0.87771 0.20958 0.05500
C 	C 	0.72530 0.45657 0.45486 0.48000
C 	C 	0.04810 0.29541 0.19498 0.11400
C 	C 	0.94190 0.08752 0.29016 0.06000
C 	C 	0.04600 0.29953 0.07214 -0.09200
C 	C 	0.93710 0.08438 0.17324 -0.13000
C 	C 	0.98900 0.19295 0.05850 -0.00000
C 	C 	0.98320 0.19530 0.92780 0.04900
C 	C 	0.01560 0.31599 0.81122 -0.11700
C 	C 	0.94670 0.07997 0.91466 -0.20600
C 	C 	0.01370 0.31277 0.69226 0.12000
C 	C 	0.94570 0.08729 0.79042 0.10000
C 	C 	0.22530 0.91143 0.54514 0.46500
N 	N 	0.49650 0.49661 0.69578 -0.25800
N 	N 	0.48080 0.87971 0.32038 -0.22300
N 	N 	0.99650 0.19239 0.30422 -0.27800
N 	N 	0.98080 0.20009 0.67962 -0.28400
O 	O 	0.63880 0.58271 0.40498 -0.48100
O 	O 	0.84050 0.40799 0.39662 -0.48700
O 	O 	0.13880 0.98769 0.59502 -0.43500
O 	O 	0.34050 0.80461 0.60338 -0.46100
