data_crystal

_cell_length_a 11.43910
_cell_length_b 15.44810
_cell_length_c 19.11560
_cell_angle_alpha 94.62500
_cell_angle_beta  90.00000
_cell_angle_gamma 90.00000

_symmetry_space_group_name_	'P 1'
_symmetry_space_group_name_H-M	'P 1'

loop_
_symmetry_equiv_pos_as_xyz
  x,y,z

loop_
_atom_site_label
_atom_site_type_symbol
_atom_site_fract_x
_atom_site_fract_y
_atom_site_fract_z
_atom_site_charge
Cd	Cd	0.56637 0.54334 0.42290 1.21800
Cd	Cd	0.43363 0.54334 0.92290 1.21800
Cd	Cd	0.56637 0.45666 0.07710 1.21800
Cd	Cd	0.53199 0.50000 0.75000 1.24900
Cd	Cd	0.46801 0.50000 0.25000 1.25000
Cd	Cd	0.43363 0.45666 0.57710 1.21900
H 	H 	0.00140 0.76370 0.30510 0.16200
H 	H 	0.31480 0.61790 0.69270 -0.05000
H 	H 	0.26800 0.72010 0.48040 -0.03800
H 	H 	0.68170 0.83280 0.75530 0.17000
H 	H 	0.19020 0.01960 0.58850 0.22800
H 	H 	0.15000 0.93300 0.36700 0.22500
H 	H 	0.73820 0.71070 0.10880 0.15000
H 	H 	0.15000 0.06700 0.13300 0.22300
H 	H 	0.57910 0.70650 0.72320 -0.04500
H 	H 	0.11940 0.17900 0.99980 0.17500
H 	H 	0.99190 0.83660 0.67010 0.21300
H 	H 	0.84400 0.33600 0.71400 -0.03300
H 	H 	0.00810 0.83660 0.17010 0.21100
H 	H 	0.19560 0.89820 0.76120 0.15700
H 	H 	0.31480 0.38210 0.80730 -0.05000
H 	H 	0.00140 0.23630 0.19490 0.16100
H 	H 	0.74300 0.80600 0.34400 -0.01800
H 	H 	0.00810 0.16340 0.32990 0.21300
H 	H 	0.25700 0.19400 0.65600 -0.01800
H 	H 	0.15600 0.66400 0.28600 -0.03300
H 	H 	0.74300 0.19400 0.15600 -0.01800
H 	H 	0.31150 0.28520 0.47510 -0.03900
H 	H 	0.68170 0.16720 0.74470 0.17000
H 	H 	0.26180 0.71070 0.60880 0.15100
H 	H 	0.68850 0.71480 0.52490 -0.03900
H 	H 	0.79180 0.84130 0.55680 0.17000
H 	H 	0.31150 0.71480 0.02490 -0.03900
H 	H 	0.20820 0.15870 0.44320 0.17000
H 	H 	0.31830 0.83280 0.25530 0.17000
H 	H 	0.42090 0.70650 0.22320 -0.04500
H 	H 	0.57910 0.29350 0.77680 -0.04500
H 	H 	0.73820 0.28930 0.39120 0.15100
H 	H 	0.99860 0.23630 0.69490 0.16200
H 	H 	0.31830 0.16720 0.24470 0.17000
H 	H 	0.68520 0.38210 0.30730 -0.05000
H 	H 	0.85000 0.06700 0.63300 0.22500
H 	H 	0.11940 0.82100 0.50020 0.18000
H 	H 	0.73200 0.72010 0.98040 -0.03500
H 	H 	0.19020 0.98040 0.91150 0.22600
H 	H 	0.79180 0.15870 0.94320 0.17000
H 	H 	0.68520 0.61790 0.19270 -0.05000
H 	H 	0.88060 0.82100 0.00020 0.17500
H 	H 	0.80440 0.10180 0.23880 0.15700
H 	H 	0.80440 0.89820 0.26120 0.15600
H 	H 	0.42090 0.29350 0.27680 -0.04500
H 	H 	0.99860 0.76370 0.80510 0.16100
H 	H 	0.73200 0.27990 0.51960 -0.03800
H 	H 	0.88060 0.17900 0.49980 0.18000
H 	H 	0.99190 0.16340 0.82990 0.21100
H 	H 	0.80980 0.01960 0.08850 0.22600
H 	H 	0.68850 0.28520 0.97510 -0.03900
H 	H 	0.15600 0.33600 0.21400 -0.03200
H 	H 	0.26180 0.28930 0.89120 0.15000
H 	H 	0.26800 0.27990 0.01960 -0.03500
H 	H 	0.20820 0.84130 0.05680 0.17000
H 	H 	0.80980 0.98040 0.41150 0.22800
H 	H 	0.19560 0.10180 0.73880 0.15600
H 	H 	0.85000 0.93300 0.86700 0.22300
H 	H 	0.25700 0.80600 0.84400 -0.01800
H 	H 	0.84400 0.66400 0.78600 -0.03200
C 	C 	0.08530 0.03050 0.13220 -0.49200
C 	C 	0.37550 0.69731 0.12108 -0.28400
C 	C 	0.66580 0.64462 0.32990 0.39100
C 	C 	0.05590 0.24460 0.16000 -0.34800
C 	C 	0.09450 0.05200 0.34524 0.46100
C 	C 	0.25450 0.78650 0.79734 0.20000
C 	C 	0.10550 0.07920 0.87024 0.44000
C 	C 	0.87380 0.21040 0.54310 -0.36100
C 	C 	0.85460 0.69580 0.82822 0.21600
C 	C 	0.77910 0.84220 0.24753 -0.33100
C 	C 	0.90550 0.05200 0.84524 0.45500
C 	C 	0.55990 0.38566 0.89814 0.46600
C 	C 	0.74550 0.21350 0.20266 0.20000
C 	C 	0.37550 0.30269 0.37892 -0.28400
C 	C 	0.44010 0.61434 0.10186 0.46600
C 	C 	0.02200 0.94370 0.89238 0.44700
C 	C 	0.62210 0.26670 0.81025 0.23500
C 	C 	0.97800 0.94370 0.39238 0.45200
C 	C 	0.00060 0.89180 0.15442 -0.49800
C 	C 	0.04860 0.80230 0.40420 0.36300
C 	C 	0.73980 0.27020 0.34381 -0.33100
C 	C 	0.89450 0.92080 0.12976 0.44000
C 	C 	0.94410 0.24460 0.66000 -0.35100
C 	C 	0.37790 0.73330 0.18975 0.23500
C 	C 	0.33420 0.35538 0.67010 0.39100
C 	C 	0.25350 0.15190 0.34081 0.35900
C 	C 	0.77450 0.31776 0.61949 -0.25800
C 	C 	0.77420 0.18680 0.32297 0.34300
C 	C 	0.44010 0.38566 0.39814 0.46700
C 	C 	0.08530 0.96950 0.36780 -0.50000
C 	C 	0.94410 0.75540 0.84000 -0.34800
C 	C 	0.77910 0.15780 0.25247 -0.33200
C 	C 	0.78500 0.27080 0.55520 0.22400
C 	C 	0.26020 0.72980 0.65619 -0.33100
C 	C 	0.32510 0.61969 0.36636 0.43200
C 	C 	0.74550 0.78650 0.29734 0.20000
C 	C 	0.29240 0.67460 0.70650 0.20500
C 	C 	0.67490 0.38031 0.63364 0.43200
C 	C 	0.14540 0.69580 0.32822 0.21900
C 	C 	0.74930 0.81390 0.59011 -0.35300
C 	C 	0.77420 0.81320 0.17703 0.34200
C 	C 	0.62450 0.30269 0.87892 -0.28400
C 	C 	0.31670 0.19120 0.29090 -0.34300
C 	C 	0.37790 0.26670 0.31025 0.23600
C 	C 	0.62210 0.73330 0.68975 0.23600
C 	C 	0.11870 0.99810 0.89438 -0.48600
C 	C 	0.78500 0.72920 0.94480 0.21900
C 	C 	0.31670 0.80880 0.20910 -0.34200
C 	C 	0.73980 0.72980 0.15619 -0.33000
C 	C 	0.97800 0.05630 0.10762 0.44700
C 	C 	0.70840 0.29705 0.22303 -0.24200
C 	C 	0.74650 0.15190 0.84081 0.35800
C 	C 	0.22580 0.81320 0.67703 0.34300
C 	C 	0.22580 0.18680 0.82297 0.34200
C 	C 	0.25350 0.84810 0.15919 0.35800
C 	C 	0.25070 0.81390 0.09011 -0.35200
C 	C 	0.12620 0.78960 0.45690 -0.36100
C 	C 	0.02200 0.05630 0.60762 0.45200
C 	C 	0.67490 0.61969 0.86636 0.43100
C 	C 	0.05590 0.75540 0.34000 -0.35100
C 	C 	0.68760 0.26180 0.92876 0.23200
C 	C 	0.11870 0.00190 0.60562 -0.49300
C 	C 	0.85460 0.30420 0.67178 0.21900
C 	C 	0.22090 0.84220 0.74753 -0.33200
C 	C 	0.29160 0.70295 0.77697 -0.24200
C 	C 	0.68760 0.73820 0.57124 0.23200
C 	C 	0.25450 0.21350 0.70266 0.20000
C 	C 	0.09450 0.94800 0.15476 0.45500
C 	C 	0.68330 0.19120 0.79090 -0.34200
C 	C 	0.10550 0.92080 0.62976 0.44700
C 	C 	0.26020 0.27020 0.84381 -0.33000
C 	C 	0.62450 0.69731 0.62108 -0.28400
C 	C 	0.99940 0.10820 0.84558 -0.49800
C 	C 	0.77450 0.68224 0.88051 -0.25500
C 	C 	0.29240 0.32540 0.79350 0.20400
C 	C 	0.55990 0.61434 0.60186 0.46700
C 	C 	0.74930 0.18610 0.90989 -0.35200
C 	C 	0.32510 0.38031 0.13364 0.43100
C 	C 	0.89450 0.07920 0.37024 0.44700
C 	C 	0.22090 0.15780 0.75247 -0.33100
C 	C 	0.99940 0.89180 0.65442 -0.50500
C 	C 	0.22550 0.31776 0.11949 -0.25500
C 	C 	0.14540 0.30420 0.17178 0.21600
C 	C 	0.88130 0.00190 0.10562 -0.48600
C 	C 	0.31240 0.73820 0.07124 0.23200
C 	C 	0.29160 0.29705 0.72303 -0.24100
C 	C 	0.87380 0.78960 0.95690 -0.35200
C 	C 	0.22550 0.68224 0.38051 -0.25800
C 	C 	0.91470 0.03050 0.63220 -0.50000
C 	C 	0.88130 0.99810 0.39438 -0.49300
C 	C 	0.95140 0.19770 0.59580 0.36300
C 	C 	0.91470 0.96950 0.86780 -0.49200
C 	C 	0.90550 0.94800 0.65476 0.46100
C 	C 	0.70760 0.32540 0.29350 0.20500
C 	C 	0.70760 0.67460 0.20650 0.20400
C 	C 	0.70840 0.70295 0.27697 -0.24100
C 	C 	0.68330 0.80880 0.70910 -0.34300
C 	C 	0.04860 0.19770 0.09580 0.36000
C 	C 	0.25070 0.18610 0.40989 -0.35300
C 	C 	0.33420 0.64462 0.82990 0.39100
C 	C 	0.74650 0.84810 0.65919 0.35900
C 	C 	0.21500 0.27080 0.05520 0.21900
C 	C 	0.31240 0.26180 0.42876 0.23200
C 	C 	0.95140 0.80230 0.90420 0.36000
C 	C 	0.21500 0.72920 0.44480 0.22400
C 	C 	0.66580 0.35538 0.17010 0.39100
C 	C 	0.12620 0.21040 0.04310 -0.35200
C 	C 	0.00060 0.10820 0.34558 -0.50500
O 	O 	0.04060 0.86289 0.91646 -0.35900
O 	O 	0.38640 0.39701 0.08157 -0.45000
O 	O 	0.32530 0.33432 0.60578 -0.39800
O 	O 	0.51540 0.42575 0.84978 -0.53600
O 	O 	0.45170 0.58627 0.03904 -0.53600
O 	O 	0.67470 0.33432 0.10578 -0.39800
O 	O 	0.95940 0.86289 0.41646 -0.36000
O 	O 	0.32530 0.66568 0.89422 -0.39800
O 	O 	0.38070 0.42756 0.69165 -0.51600
O 	O 	0.45170 0.41373 0.46096 -0.53600
O 	O 	0.51540 0.57425 0.65022 -0.53600
O 	O 	0.20260 0.13306 0.87601 -0.35800
O 	O 	0.79860 0.92605 0.68264 -0.35100
O 	O 	0.66060 0.41077 0.69562 -0.44800
O 	O 	0.33940 0.41077 0.19562 -0.44800
O 	O 	0.61360 0.60299 0.91843 -0.45000
O 	O 	0.54830 0.58627 0.53904 -0.53600
O 	O 	0.61930 0.57244 0.30835 -0.51600
O 	O 	0.66060 0.58923 0.80438 -0.44800
O 	O 	0.48460 0.57425 0.15022 -0.53600
O 	O 	0.54830 0.41373 0.96096 -0.53600
O 	O 	0.20140 0.07395 0.31736 -0.35100
O 	O 	0.79740 0.86694 0.12399 -0.35800
O 	O 	0.20140 0.92605 0.18264 -0.35000
O 	O 	0.79860 0.07395 0.81736 -0.35000
O 	O 	0.33940 0.58923 0.30438 -0.44800
O 	O 	0.04060 0.13711 0.58354 -0.36000
O 	O 	0.38640 0.60299 0.41843 -0.45000
O 	O 	0.38070 0.57244 0.80835 -0.51600
O 	O 	0.20260 0.86694 0.62399 -0.35900
O 	O 	0.61930 0.42756 0.19165 -0.51600
O 	O 	0.67470 0.66568 0.39422 -0.39800
O 	O 	0.61360 0.39701 0.58157 -0.45000
O 	O 	0.95940 0.13711 0.08354 -0.35900
O 	O 	0.48460 0.42575 0.34978 -0.53600
O 	O 	0.79740 0.13306 0.37601 -0.35900
