data_crystal

_audit_creation_method 'AiiDA-DDEC plugin'

_cell_length_a        41.92804
_cell_length_b        41.90753
_cell_length_c        17.62131

_cell_angle_alpha     90.02321
_cell_angle_beta     89.87968
_cell_angle_gamma     119.84505

_symmetry_space_group_name_Hall 'P 1'
_symmetry_space_group_name_H-M  'P 1'

loop_
_symmetry_equiv_pos_as_xyz
 'x,y,z'

loop_
_atom_site_label
_atom_site_type_symbol
_atom_site_fract_x
_atom_site_fract_y
_atom_site_fract_z
_atom_site_charge
Zn         Zn      0.41120   0.48002   0.75334   0.95773
Zn         Zn      0.59352   0.52160   0.25097   0.95605
Zn         Zn      0.52157   0.92976   0.74933   0.95714
Zn         Zn      0.47682   0.06889   0.24887   0.95660
Zn         Zn      0.07038   0.59038   0.74701   0.96335
Zn         Zn      0.92958   0.40650   0.24934   0.95693
Zn         Zn      0.37440   0.40320   0.66124   0.96749
Zn         Zn      0.63034   0.59853   0.33888   0.95780
Zn         Zn      0.59850   0.96960   0.65831   0.96823
Zn         Zn      0.39996   0.02884   0.34298   0.96634
Zn         Zn      0.03061   0.62738   0.65711   0.95783
Zn         Zn      0.96965   0.36979   0.33797   0.96810
Zn         Zn      0.63044   0.59865   0.15794   0.96147
Zn         Zn      0.37425   0.40308   0.84263   0.95491
Zn         Zn      0.40009   0.02898   0.16088   0.95970
Zn         Zn      0.59835   0.97111   0.83950   0.95914
Zn         Zn      0.97102   0.37096   0.15613   0.96030
Zn         Zn      0.03042   0.62744   0.83871   0.96261
Zn         Zn      0.32430   0.42848   0.75293   0.95757
Zn         Zn      0.68027   0.57281   0.24647   0.96010
Zn         Zn      0.57277   0.89440   0.75438   0.95890
Zn         Zn      0.42575   0.10451   0.25101   0.95689
Zn         Zn      0.10561   0.67834   0.74992   0.96203
Zn         Zn      0.89457   0.32007   0.24202   0.95801
H          H       0.45459   0.43601   0.49436   0.12140
H          H       0.56404   0.01201   0.47717   0.12235
H          H       0.43534   0.98494   0.51627   0.12246
H          H       0.98264   0.54704   0.48593   0.12242
H          H       0.01777   0.45025   0.50962   0.12219
H          H       0.54913   0.56608   0.99308   0.12304
H          H       0.45581   0.43300   0.00936   0.12393
H          H       0.43253   0.98178   0.98736   0.12258
H          H       0.56643   0.02442   0.99770   0.12283
H          H       0.01284   0.44803   0.98307   0.12237
H          H       0.98754   0.55119   0.01629   0.12177
H          H       0.49922   0.54067   0.60564   0.12273
H          H       0.50605   0.46343   0.39888   0.12255
H          H       0.46460   0.96174   0.60898   0.12261
H          H       0.53480   0.03526   0.38464   0.12272
H          H       0.04160   0.50255   0.60256   0.12191
H          H       0.95887   0.49474   0.39289   0.12211
H          H       0.50736   0.46169   0.10404   0.12265
H          H       0.49749   0.53757   0.89842   0.12262
H          H       0.53784   0.04783   0.09202   0.12269
H          H       0.46108   0.95838   0.89307   0.12244
H          H       0.96319   0.49931   0.11058   0.12130
H          H       0.03677   0.49965   0.88832   0.12308
H          H       0.25228   0.41427   0.57855   0.11977
H          H       0.75093   0.58622   0.42357   0.12068
H          H       0.57946   0.83452   0.57375   0.12133
H          H       0.41637   0.16403   0.43305   0.12124
H          H       0.16458   0.74506   0.56522   0.12443
H          H       0.83493   0.25010   0.42002   0.12163
H          H       0.74498   0.57998   0.06155   0.12111
H          H       0.25294   0.41495   0.92853   0.12166
H          H       0.41584   0.16227   0.07376   0.12121
H          H       0.58894   0.83994   0.92779   0.12036
H          H       0.83845   0.25247   0.06684   0.12333
H          H       0.16177   0.74761   0.92712   0.12317
H          H       0.21826   0.40937   0.45983   0.11009
H          H       0.78395   0.59178   0.54413   0.11244
H          H       0.58344   0.80589   0.45315   0.11266
H          H       0.40928   0.19119   0.55284   0.11207
H          H       0.19137   0.77918   0.44512   0.11461
H          H       0.80692   0.21700   0.54066   0.11245
H          H       0.77967   0.58748   0.94192   0.11053
H          H       0.21857   0.40959   0.04734   0.11381
H          H       0.41131   0.19097   0.95402   0.11239
H          H       0.59418   0.81056   0.04575   0.11242
H          H       0.80882   0.21902   0.94824   0.11348
H          H       0.18930   0.78074   0.04749   0.11216
H          H       0.27350   0.35871   0.34897   0.11131
H          H       0.73571   0.65207   0.64282   0.11256
H          H       0.64924   0.91367   0.35566   0.11258
H          H       0.34946   0.08279   0.65111   0.11246
H          H       0.08260   0.73386   0.35151   0.11260
H          H       0.91466   0.26560   0.64107   0.11331
H          H       0.73622   0.65305   0.84908   0.11284
H          H       0.27491   0.36020   0.15829   0.11199
H          H       0.34796   0.08338   0.85450   0.11226
H          H       0.64154   0.91541   0.15945   0.11186
H          H       0.91446   0.27219   0.83671   0.11191
H          H       0.08099   0.73557   0.14448   0.11268
H          H       0.30908   0.36616   0.46631   0.12159
H          H       0.70066   0.64374   0.52396   0.12431
H          H       0.64296   0.94186   0.47481   0.12156
H          H       0.35893   0.05639   0.53262   0.12051
H          H       0.05637   0.69768   0.46989   0.12080
H          H       0.94194   0.30023   0.52157   0.12137
H          H       0.69962   0.64309   0.96702   0.12417
H          H       0.31090   0.36825   0.04060   0.12198
H          H       0.35510   0.05529   0.97281   0.12086
H          H       0.63307   0.94348   0.04297   0.12096
H          H       0.94297   0.30766   0.95396   0.12110
H          H       0.05403   0.70034   0.02585   0.12039
H          H       0.27060   0.39050   0.25406   0.11304
H          H       0.73580   0.61946   0.74450   0.11344
H          H       0.61355   0.88140   0.25486   0.10941
H          H       0.38121   0.11582   0.75314   0.11344
H          H       0.11468   0.73416   0.24697   0.11432
H          H       0.88123   0.26688   0.73983   0.11273
H          H       0.17464   0.37356   0.37512   0.10780
H          H       0.82813   0.62664   0.62369   0.11029
H          H       0.61998   0.79582   0.37376   0.11020
H          H       0.37059   0.19870   0.63130   0.11250
H          H       0.20010   0.82474   0.36943   0.11009
H          H       0.79913   0.17166   0.62274   0.11195
H          H       0.82833   0.62926   0.86797   0.11255
H          H       0.17648   0.37593   0.13056   0.10900
H          H       0.37658   0.20202   0.87521   0.11053
H          H       0.62705   0.80102   0.12965   0.11056
H          H       0.79742   0.17640   0.86656   0.10958
H          H       0.19669   0.82816   0.12546   0.11226
H          H       0.12579   0.36408   0.13001   0.11110
H          H       0.86307   0.60840   0.86130   0.10785
H          H       0.61519   0.74886   0.12963   0.10738
H          H       0.35171   0.23411   0.86737   0.11345
H          H       0.25245   0.86358   0.13150   0.11073
H          H       0.76617   0.11936   0.86093   0.11384
H          H       0.88371   0.64871   0.63108   0.11294
H          H       0.13147   0.38015   0.37276   0.10804
H          H       0.39435   0.25549   0.63873   0.10835
H          H       0.63468   0.75838   0.37126   0.10924
H          H       0.74296   0.13815   0.63205   0.11070
H          H       0.23317   0.87988   0.36528   0.11320
H          H       0.06727   0.36426   0.12800   0.12063
H          H       0.92258   0.60957   0.86206   0.12083
H          H       0.61836   0.69172   0.12916   0.11994
H          H       0.35358   0.29406   0.86820   0.12086
H          H       0.31040   0.92325   0.13323   0.12125
H          H       0.70715   0.06055   0.86370   0.12069
H          H       0.94131   0.64614   0.63043   0.12105
H          H       0.07188   0.37815   0.36949   0.12020
H          H       0.39216   0.31336   0.63804   0.12061
H          H       0.63523   0.69996   0.36987   0.12090
H          H       0.68593   0.07755   0.63355   0.12079
H          H       0.29275   0.93777   0.36750   0.12049
H          H       0.70629   0.48958   0.24668   0.12050
H          H       0.48939   0.78524   0.77878   0.12098
H          H       0.50961   0.21342   0.22178   0.12019
H          H       0.21160   0.69812   0.80947   0.12345
H          H       0.78742   0.29740   0.19999   0.12440
H          H       0.30186   0.51254   0.69913   0.11989
H          H       0.71486   0.43573   0.24301   0.10780
H          H       0.43515   0.72279   0.77843   0.11035
H          H       0.56369   0.27562   0.22088   0.11123
H          H       0.27446   0.70643   0.81367   0.11355
H          H       0.72458   0.28892   0.19737   0.11297
H          H       0.29275   0.56678   0.69426   0.10864
H          H       0.39873   0.63274   0.79916   0.10982
H          H       0.59700   0.36460   0.25105   0.10815
H          H       0.63309   0.22915   0.27019   0.11167
H          H       0.36723   0.76820   0.70959   0.11275
H          H       0.76546   0.39510   0.30260   0.11001
H          H       0.23517   0.60353   0.69538   0.10946
H          H       0.40881   0.57913   0.79561   0.12043
H          H       0.58937   0.41904   0.25460   0.12043
H          H       0.57871   0.16713   0.26650   0.12109
H          H       0.42138   0.83072   0.71660   0.12095
H          H       0.82866   0.40450   0.29819   0.12151
H          H       0.17182   0.59404   0.69876   0.12115
H          H       0.28005   0.60342   0.76064   0.11302
H          H       0.72117   0.39392   0.24424   0.10866
H          H       0.39614   0.67532   0.73311   0.11043
H          H       0.32387   0.72020   0.75029   0.10878
H          H       0.67567   0.27730   0.25133   0.10879
H          H       0.60404   0.32295   0.24958   0.10194
H          H       0.55085   0.56793   0.51060   0.12292
C          C       0.44351   0.47022   0.61271   0.59633
C          C       0.56204   0.53356   0.39254   0.59335
C          C       0.53275   0.97116   0.60422   0.59455
C          C       0.46592   0.02506   0.38950   0.59621
C          C       0.02736   0.55858   0.60587   0.59439
C          C       0.97295   0.43855   0.39001   0.59543
C          C       0.56171   0.53231   0.10981   0.59578
C          C       0.44282   0.46729   0.89328   0.59363
C          C       0.46654   0.02963   0.10238   0.59429
C          C       0.53217   0.97551   0.88456   0.59541
C          C       0.97254   0.43960   0.10825   0.59591
C          C       0.02798   0.55923   0.89044   0.59595
C          C       0.47398   0.48669   0.55561  -0.03582
C          C       0.53143   0.51726   0.44943  -0.03457
C          C       0.51587   0.98525   0.54820  -0.03389
C          C       0.48333   0.01128   0.44491  -0.03605
C          C       0.01346   0.52778   0.54967  -0.03516
C          C       0.98705   0.46953   0.44580  -0.03466
C          C       0.53108   0.51542   0.05366  -0.03470
C          C       0.47368   0.48379   0.94888  -0.03407
C          C       0.48356   0.01614   0.04517  -0.03401
C          C       0.51539   0.98999   0.94007  -0.03406
C          C       0.98661   0.47061   0.05226  -0.03337
C          C       0.01357   0.52843   0.94689  -0.03444
C          C       0.47579   0.46481   0.49725  -0.09582
C          C       0.52961   0.53915   0.50772  -0.09578
C          C       0.53590   0.00612   0.48509  -0.09641
C          C       0.46339   0.99057   0.50822  -0.09505
C          C       0.99016   0.52575   0.49048  -0.09456
C          C       0.01035   0.47158   0.50496  -0.09642
C          C       0.52855   0.53707   0.99586  -0.09698
C          C       0.47629   0.46206   0.00646  -0.09676
C          C       0.46176   0.99094   0.98900  -0.09695
C          C       0.53721   0.01533   0.99598  -0.09591
C          C       0.00744   0.47069   0.98964  -0.09542
C          C       0.99278   0.52842   0.00954  -0.09590
C          C       0.50103   0.52401   0.56039  -0.09498
C          C       0.50429   0.47999   0.44444  -0.09509
C          C       0.47957   0.97767   0.55949  -0.09548
C          C       0.51971   0.01905   0.43377  -0.09603
C          C       0.02351   0.50055   0.55650  -0.09509
C          C       0.97703   0.49679   0.43889  -0.09476
C          C       0.50484   0.47788   0.05876  -0.09543
C          C       0.49997   0.52133   0.94368  -0.09511
C          C       0.52139   0.02831   0.04821  -0.09555
C          C       0.47758   0.97795   0.93679  -0.09549
C          C       0.97930   0.49965   0.06183  -0.09555
C          C       0.02076   0.49933   0.93721  -0.09559
C          C       0.30549   0.39625   0.59922   0.59601
C          C       0.70067   0.60775   0.39730   0.59766
C          C       0.60534   0.90646   0.60196   0.59747
C          C       0.39486   0.09220   0.40603   0.59789
C          C       0.09282   0.69611   0.59417   0.59666
C          C       0.90640   0.29982   0.39403   0.59896
C          C       0.69760   0.60428   0.09141   0.59609
C          C       0.30687   0.39841   0.90816   0.59536
C          C       0.39129   0.09026   0.10054   0.59745
C          C       0.60472   0.91017   0.90836   0.59769
C          C       0.90962   0.30373   0.08795   0.59567
C          C       0.09041   0.69890   0.89902   0.59696
C          C       0.28305   0.39080   0.52974  -0.05082
C          C       0.72346   0.61434   0.46656  -0.05340
C          C       0.61072   0.88988   0.53168  -0.05260
C          C       0.38822   0.10844   0.47550  -0.05113
C          C       0.10881   0.71897   0.52471  -0.05151
C          C       0.89008   0.27748   0.46380  -0.05516
C          C       0.72000   0.61084   0.02137  -0.05215
C          C       0.28422   0.39229   0.97755  -0.05222
C          C       0.38591   0.10701   0.03062  -0.05230
C          C       0.61054   0.89350   0.97800  -0.05276
C          C       0.89252   0.28219   0.01774  -0.05058
C          C       0.10617   0.72161   0.96888  -0.04871
C          C       0.25673   0.40222   0.52780  -0.08735
C          C       0.74779   0.60054   0.47197  -0.08543
C          C       0.59466   0.85154   0.52554  -0.08691
C          C       0.40168   0.14646   0.48101  -0.08754
C          C       0.14689   0.74271   0.51801  -0.09063
C          C       0.85204   0.25324   0.46889  -0.08651
C          C       0.74328   0.59586   0.01454  -0.08647
C          C       0.25750   0.40311   0.97939  -0.08621
C          C       0.40104   0.14529   0.02534  -0.08778
C          C       0.60036   0.85611   0.97903  -0.08561
C          C       0.85473   0.25662   0.01590  -0.09012
C          C       0.14431   0.74517   0.97502  -0.09140
C          C       0.23746   0.39904   0.46124  -0.14177
C          C       0.76651   0.60408   0.53945  -0.14337
C          C       0.59726   0.83569   0.45808  -0.14220
C          C       0.39732   0.16151   0.54809  -0.14214
C          C       0.16171   0.76202   0.45083  -0.14345
C          C       0.83659   0.23456   0.53631  -0.14228
C          C       0.76296   0.60054   0.94779  -0.14072
C          C       0.23810   0.39967   0.04598  -0.14366
C          C       0.39813   0.16117   0.95823  -0.14238
C          C       0.60379   0.83993   0.04521  -0.14361
C          C       0.83838   0.23766   0.94935  -0.14393
C          C       0.15957   0.76402   0.04236  -0.14309
C          C       0.24346   0.38388   0.39505   0.07732
C          C       0.76206   0.62203   0.60279   0.07809
C          C       0.61635   0.85771   0.39521   0.07819
C          C       0.37899   0.13910   0.61116   0.07537
C          C       0.13899   0.75868   0.38906   0.07618
C          C       0.85870   0.23924   0.60007   0.07866
C          C       0.76042   0.62076   0.88655   0.07785
C          C       0.24444   0.38480   0.11210   0.07704
C          C       0.37953   0.13931   0.89494   0.07738
C          C       0.61819   0.86067   0.11202   0.07687
C          C       0.85934   0.24304   0.88315   0.07586
C          C       0.13721   0.76056   0.10514   0.07693
C          C       0.26918   0.37156   0.39854  -0.14067
C          C       0.73863   0.63698   0.59561  -0.14345
C          C       0.63331   0.89620   0.40279  -0.14326
C          C       0.36464   0.10086   0.60408  -0.14152
C          C       0.10073   0.73575   0.39747  -0.14340
C          C       0.89698   0.26263   0.59335  -0.14360
C          C       0.73769   0.63644   0.89487  -0.14269
C          C       0.27047   0.37289   0.10865  -0.14251
C          C       0.36351   0.10086   0.90178  -0.14299
C          C       0.62935   0.89844   0.10946  -0.14213
C          C       0.89740   0.26823   0.88629  -0.14214
C          C       0.09888   0.73778   0.09753  -0.14284
C          C       0.28893   0.37527   0.46440  -0.08785
C          C       0.71929   0.63284   0.52889  -0.09012
C          C       0.63030   0.91216   0.46970  -0.08694
C          C       0.36946   0.08581   0.53762  -0.08850
C          C       0.08586   0.71584   0.46389  -0.08667
C          C       0.91247   0.28175   0.52645  -0.08582
C          C       0.71745   0.63129   0.96097  -0.08980
C          C       0.29040   0.37691   0.04270  -0.08756
C          C       0.36699   0.08492   0.96820  -0.08643
C          C       0.62514   0.91453   0.04399  -0.08775
C          C       0.91371   0.28788   0.95215  -0.08731
C          C       0.08359   0.71828   0.03085  -0.08735
C          C       0.22433   0.38152   0.32289   0.07030
C          C       0.78065   0.62436   0.67560   0.07091
C          C       0.61835   0.84124   0.32233   0.07145
C          C       0.37627   0.15549   0.68368   0.07254
C          C       0.15483   0.77807   0.31661   0.07225
C          C       0.84213   0.22112   0.67308   0.07022
C          C       0.78006   0.62416   0.81442   0.07053
C          C       0.22500   0.38210   0.18408   0.07037
C          C       0.37730   0.15606   0.82260   0.07084
C          C       0.62019   0.84318   0.18361   0.06998
C          C       0.84217   0.22324   0.81188   0.07137
C          C       0.15378   0.77925   0.17783   0.07024
C          C       0.24227   0.38465   0.25368  -0.18146
C          C       0.76337   0.62313   0.74478  -0.18299
C          C       0.61766   0.85776   0.25362  -0.17903
C          C       0.37779   0.13989   0.75311  -0.18315
C          C       0.13848   0.76172   0.24716  -0.18331
C          C       0.85763   0.23924   0.74157  -0.18230
C          C       0.18873   0.37678   0.32145  -0.17819
C          C       0.81503   0.62630   0.67719  -0.18199
C          C       0.62030   0.80881   0.32021  -0.18019
C          C       0.37365   0.18761   0.68480  -0.18350
C          C       0.18718   0.81240   0.31569  -0.18250
C          C       0.81038   0.18634   0.67561  -0.18214
C          C       0.81482   0.62692   0.81401  -0.18280
C          C       0.18958   0.37769   0.18469  -0.17939
C          C       0.37598   0.18887   0.82162  -0.18205
C          C       0.62347   0.81139   0.18363  -0.18033
C          C       0.80998   0.18870   0.81243  -0.18054
C          C       0.18575   0.81397   0.17902  -0.18308
C          C       0.17100   0.37550   0.25276   0.07100
C          C       0.83261   0.62752   0.74583   0.07134
C          C       0.62285   0.79324   0.25132   0.07033
C          C       0.37409   0.20510   0.75322   0.07071
C          C       0.20320   0.83087   0.24748   0.07072
C          C       0.79357   0.16984   0.74489   0.06992
C          C       0.13422   0.37273   0.25156   0.07511
C          C       0.86846   0.62848   0.74616   0.07532
C          C       0.62472   0.75872   0.25048   0.07600
C          C       0.37312   0.24000   0.75309   0.07637
C          C       0.23790   0.86679   0.24818   0.07589
C          C       0.75928   0.13363   0.74634   0.07652
C          C       0.11485   0.36779   0.18314  -0.14065
C          C       0.88036   0.61763   0.81094  -0.13961
C          C       0.62022   0.73895   0.18274  -0.14066
C          C       0.36159   0.25162   0.81742  -0.14247
C          C       0.26042   0.87996   0.18310  -0.14094
C          C       0.74844   0.11095   0.81130  -0.14373
C          C       0.89140   0.63923   0.68155  -0.14273
C          C       0.11775   0.37626   0.31853  -0.13995
C          C       0.38443   0.26309   0.68877  -0.13990
C          C       0.63044   0.74397   0.31770  -0.13996
C          C       0.73600   0.12102   0.68251  -0.14125
C          C       0.25003   0.88858   0.31430  -0.14240
C          C       0.08155   0.36752   0.18134  -0.08594
C          C       0.91361   0.61778   0.81157  -0.08825
C          C       0.62166   0.70647   0.18195  -0.08625
C          C       0.36202   0.28504   0.81802  -0.08847
C          C       0.29329   0.91330   0.18380  -0.08729
C          C       0.71552   0.07759   0.81295  -0.08666
C          C       0.92414   0.63833   0.68101  -0.08814
C          C       0.08415   0.37540   0.31729  -0.08624
C          C       0.38376   0.29595   0.68821  -0.08750
C          C       0.63115   0.71114   0.31749  -0.08707
C          C       0.70365   0.08723   0.68310  -0.08838
C          C       0.28337   0.92146   0.31592  -0.08750
C          C       0.06576   0.37139   0.24846  -0.05323
C          C       0.93574   0.62781   0.74629  -0.04911
C          C       0.62696   0.69201   0.24952  -0.05055
C          C       0.37281   0.30744   0.75315  -0.05065
C          C       0.30536   0.93425   0.25058  -0.05213
C          C       0.69286   0.06526   0.74857  -0.05044
C          C       0.37274   0.34297   0.75329   0.59646
C          C       0.62819   0.65705   0.24956   0.59491
C          C       0.65756   0.02962   0.74948   0.59630
C          C       0.34118   0.96933   0.25207   0.59674
C          C       0.97099   0.62721   0.74641   0.59503
C          C       0.03012   0.37120   0.24685   0.59712
C          C       0.36084   0.50988   0.74950   0.59425
C          C       0.64264   0.49074   0.25300   0.59190
C          C       0.49156   0.84956   0.75251   0.59467
C          C       0.50769   0.14877   0.24603   0.59238
C          C       0.15004   0.64054   0.75361   0.59693
C          C       0.84983   0.35668   0.24698   0.59333
C          C       0.35582   0.54261   0.74769  -0.04783
C          C       0.64731   0.45782   0.25135  -0.05005
C          C       0.45879   0.81199   0.74857  -0.04974
C          C       0.54064   0.18627   0.24475  -0.04975
C          C       0.18781   0.64551   0.75426  -0.05001
C          C       0.81204   0.35158   0.24863  -0.04944
C          C       0.68259   0.46199   0.24781  -0.08705
C          C       0.46240   0.78114   0.76443  -0.08893
C          C       0.53686   0.21726   0.23202  -0.08701
C          C       0.21713   0.67745   0.78551  -0.09191
C          C       0.78228   0.31874   0.22159  -0.09073
C          C       0.32290   0.53917   0.72008  -0.08821
C          C       0.68708   0.43131   0.24584  -0.14006
C          C       0.43180   0.74606   0.76308  -0.14150
C          C       0.56757   0.25230   0.23230  -0.14305
C          C       0.25239   0.68212   0.78670  -0.14358
C          C       0.74701   0.31398   0.22126  -0.14390
C          C       0.31781   0.56951   0.71857  -0.13966
C          C       0.34491   0.60385   0.74686   0.07573
C          C       0.65669   0.39528   0.24756   0.07738
C          C       0.39666   0.74029   0.74412   0.07625
C          C       0.60309   0.25788   0.24652   0.07462
C          C       0.25976   0.65566   0.75454   0.07630
C          C       0.74010   0.34139   0.24967   0.07686
C          C       0.37773   0.60683   0.77507  -0.14084
C          C       0.62142   0.39167   0.25026  -0.14039
C          C       0.60637   0.22638   0.25865  -0.14125
C          C       0.39364   0.77148   0.72638  -0.14221
C          C       0.77009   0.37391   0.27816  -0.14116
C          C       0.23013   0.62391   0.72255  -0.13997
C          C       0.38342   0.57682   0.77432  -0.08853
C          C       0.61672   0.42225   0.25224  -0.08615
C          C       0.57583   0.19121   0.25725  -0.08686
C          C       0.42405   0.80678   0.72940  -0.08787
C          C       0.80561   0.37921   0.27677  -0.08794
C          C       0.19460   0.61861   0.72330  -0.08917
C          C       0.33892   0.63579   0.74714   0.07078
C          C       0.66180   0.36263   0.24742   0.07008
C          C       0.36426   0.70265   0.74478   0.06962
C          C       0.63568   0.29545   0.24808   0.07200
C          C       0.29752   0.66117   0.75256   0.07036
C          C       0.70249   0.33623   0.24901   0.07017
C          C       0.30338   0.63097   0.75318  -0.18257
C          C       0.69712   0.36667   0.24707  -0.17740
C          C       0.36885   0.67167   0.74166  -0.18075
C          C       0.63157   0.32673   0.24824  -0.17471
C          C       0.32826   0.69675   0.74944  -0.17954
C          C       0.67152   0.30086   0.24939  -0.17862
O          O       0.37117   0.42869   0.75205  -1.00906
O          O       0.63360   0.57292   0.24834  -1.00785
O          O       0.57302   0.94139   0.74985  -1.00956
O          O       0.42536   0.05746   0.25190  -1.00814
O          O       0.05934   0.63080   0.74806  -1.01030
O          O       0.94144   0.36677   0.24631  -1.01016
O          O       0.44305   0.49196   0.66314  -0.54339
O          O       0.56169   0.51201   0.34083  -0.54476
O          O       0.51216   0.95195   0.65901  -0.54583
O          O       0.48593   0.04390   0.33358  -0.54566
O          O       0.04793   0.55813   0.65877  -0.54610
O          O       0.95282   0.43941   0.33667  -0.54420
O          O       0.56136   0.51130   0.16275  -0.54490
O          O       0.44164   0.48922   0.84441  -0.54728
O          O       0.48798   0.05211   0.15250  -0.54817
O          O       0.51025   0.95169   0.83690  -0.54443
O          O       0.95018   0.43848   0.15908  -0.54720
O          O       0.04817   0.55838   0.83691  -0.54765
O          O       0.29584   0.40624   0.65956  -0.54530
O          O       0.70956   0.59631   0.33783  -0.54842
O          O       0.59031   0.88483   0.65855  -0.54572
O          O       0.40783   0.11323   0.34788  -0.54770
O          O       0.11381   0.70416   0.65227  -0.55015
O          O       0.88489   0.29274   0.33718  -0.54420
O          O       0.70541   0.59037   0.14822  -0.54750
O          O       0.29718   0.40858   0.84808  -0.54792
O          O       0.40292   0.11077   0.15943  -0.54543
O          O       0.59673   0.89102   0.84751  -0.54991
O          O       0.89005   0.29289   0.14839  -0.54904
O          O       0.11110   0.70841   0.84011  -0.54536
O          O       0.33284   0.39075   0.59252  -0.55292
O          O       0.67367   0.61373   0.40360  -0.54998
O          O       0.61578   0.94083   0.59991  -0.55518
O          O       0.38737   0.05869   0.41070  -0.55146
O          O       0.05946   0.67003   0.58956  -0.54847
O          O       0.94043   0.32450   0.39677  -0.55560
O          O       0.67229   0.61289   0.08890  -0.54860
O          O       0.33444   0.39342   0.91469  -0.54701
O          O       0.38420   0.05686   0.09598  -0.55250
O          O       0.60790   0.94206   0.91502  -0.54844
O          O       0.94222   0.33126   0.08205  -0.54848
O          O       0.05773   0.67145   0.90387  -0.55293
O          O       0.37609   0.35847   0.68885  -0.55050
O          O       0.62883   0.64357   0.31436  -0.54575
O          O       0.64155   0.01741   0.68555  -0.55029
O          O       0.35357   0.98391   0.31717  -0.54934
O          O       0.98569   0.62894   0.68163  -0.54591
O          O       0.01669   0.37297   0.31096  -0.55026
O          O       0.62858   0.64335   0.18481  -0.55032
O          O       0.36937   0.35508   0.81784  -0.54646
O          O       0.35673   0.98193   0.18792  -0.54701
O          O       0.64608   0.01425   0.81431  -0.54573
O          O       0.01589   0.36937   0.18153  -0.54656
O          O       0.98360   0.62493   0.81105  -0.54904
O          O       0.42059   0.43581   0.60662  -0.54942
O          O       0.58595   0.56764   0.40018  -0.54383
O          O       0.56621   0.97945   0.59279  -0.54644
O          O       0.43264   0.01681   0.40265  -0.54523
O          O       0.01748   0.58271   0.59657  -0.54292
O          O       0.98215   0.41393   0.40001  -0.54721
O          O       0.58557   0.56624   0.10009  -0.54548
O          O       0.42014   0.43280   0.89947  -0.54045
O          O       0.43197   0.01756   0.09662  -0.54323
O          O       0.56683   0.98796   0.88926  -0.54702
O          O       0.98417   0.41677   0.10026  -0.54417
O          O       0.01886   0.58389   0.90042  -0.54497
O          O       0.33162   0.47856   0.74427  -0.54945
O          O       0.67202   0.52207   0.25187  -0.55015
O          O       0.52259   0.85158   0.76433  -0.54975
O          O       0.47644   0.14667   0.23747  -0.55157
O          O       0.14726   0.66908   0.76632  -0.55357
O          O       0.85251   0.32850   0.22961  -0.55090
O          O       0.39374   0.51573   0.75622  -0.54556
O          O       0.60961   0.48496   0.25525  -0.54488
O          O       0.48610   0.87684   0.74411  -0.54875
O          O       0.51331   0.12163   0.25582  -0.54568
O          O       0.12336   0.60800   0.74060  -0.54894
O          O       0.87667   0.38876   0.26272  -0.54791

