data_crystal

_cell_length_a 9.90980
_cell_length_b 10.53140
_cell_length_c 11.06190
_cell_angle_alpha 77.71100
_cell_angle_beta  76.63800
_cell_angle_gamma 66.32000

_symmetry_space_group_name_	'P 1'
_symmetry_space_group_name_H-M	'P 1'

loop_
_symmetry_equiv_pos_as_xyz
  x,y,z

loop_
_atom_site_label
_atom_site_type_symbol
_atom_site_fract_x
_atom_site_fract_y
_atom_site_fract_z
_atom_site_charge
Sm	Sm	0.94398 0.22639 0.82287 1.77000
Sm	Sm	0.05602 0.77361 0.17713 1.77000
H 	H 	0.65130 0.86100 0.14710 0.02600
H 	H 	0.59690 0.11700 0.82250 0.03600
H 	H 	0.43820 0.41230 0.70650 0.04000
H 	H 	0.73810 0.50430 0.42650 0.05200
H 	H 	0.31360 0.91900 0.50730 0.05100
H 	H 	0.45340 0.18270 0.60780 0.04900
H 	H 	0.34870 0.13900 0.85290 0.02600
H 	H 	0.40310 0.88300 0.17750 0.03600
H 	H 	0.56180 0.58770 0.29350 0.04000
H 	H 	0.26190 0.49570 0.57350 0.05200
H 	H 	0.68640 0.08100 0.49270 0.05100
H 	H 	0.54660 0.81730 0.39220 0.04900
C 	C 	0.64870 0.98720 0.98180 -0.15400
C 	C 	0.59110 0.91680 0.08800 0.00400
C 	C 	0.55810 0.06990 0.89400 -0.00600
C 	C 	0.80860 0.97440 0.96480 0.46500
C 	C 	0.60580 0.44860 0.57910 -0.06100
C 	C 	0.46300 0.44720 0.62340 -0.02800
C 	C 	0.64310 0.50220 0.45590 -0.03200
C 	C 	0.72030 0.38970 0.66480 0.29400
C 	C 	0.35840 0.06350 0.56610 -0.05300
C 	C 	0.38840 0.95250 0.50380 -0.03400
C 	C 	0.47160 0.10980 0.56390 -0.02900
C 	C 	0.20740 0.12860 0.64430 0.29700
C 	C 	0.35130 0.01280 0.01820 -0.15400
C 	C 	0.40890 0.08320 0.91200 0.00400
C 	C 	0.44190 0.93010 0.10600 -0.00600
C 	C 	0.19140 0.02560 0.03520 0.46500
C 	C 	0.39420 0.55140 0.42090 -0.06100
C 	C 	0.53700 0.55280 0.37660 -0.02800
C 	C 	0.35690 0.49780 0.54410 -0.03200
C 	C 	0.27970 0.61030 0.33520 0.29400
C 	C 	0.64160 0.93650 0.43390 -0.05300
C 	C 	0.61160 0.04750 0.49620 -0.03400
C 	C 	0.52840 0.89020 0.43610 -0.02900
C 	C 	0.79260 0.87140 0.35570 0.29700
O 	O 	0.85630 0.04420 0.87070 -0.52300
O 	O 	0.88050 0.89800 0.04840 -0.54800
O 	O 	0.85310 0.37980 0.62420 -0.39800
O 	O 	0.68120 0.34840 0.77980 -0.42800
O 	O 	0.17290 0.24480 0.67930 -0.40600
O 	O 	0.11950 0.06120 0.67500 -0.38400
O 	O 	0.14370 0.95580 0.12930 -0.52300
O 	O 	0.11950 0.10200 0.95160 -0.54800
O 	O 	0.14690 0.62020 0.37580 -0.39800
O 	O 	0.31880 0.65160 0.22020 -0.42800
O 	O 	0.82710 0.75520 0.32070 -0.40600
O 	O 	0.88050 0.93880 0.32500 -0.38400
