data_crystal

_cell_length_a 11.09420
_cell_length_b 11.09420
_cell_length_c 21.04400
_cell_angle_alpha 95.89300
_cell_angle_beta  95.89300
_cell_angle_gamma 107.21500

_symmetry_space_group_name_	'P 1'
_symmetry_space_group_name_H-M	'P 1'

loop_
_symmetry_equiv_pos_as_xyz
  x,y,z

loop_
_atom_site_label
_atom_site_type_symbol
_atom_site_fract_x
_atom_site_fract_y
_atom_site_fract_z
_atom_site_charge
Mg	Mg	0.98216 0.49898 0.19429 1.45600
Mg	Mg	0.50102 0.01784 0.30571 1.45600
Mg	Mg	0.01784 0.50102 0.80571 1.45700
Mg	Mg	0.49898 0.98216 0.69429 1.45700
Mg	Mg	0.75266 0.24734 0.25000 1.47800
Mg	Mg	0.24734 0.75266 0.75000 1.47800
H 	H 	0.89860 0.97960 0.14930 0.02900
H 	H 	0.01260 0.24240 0.03040 0.03500
H 	H 	0.93460 0.82420 0.07800 0.04300
H 	H 	0.71980 0.60640 0.07700 0.03900
H 	H 	0.47670 0.26430 0.09750 0.03700
H 	H 	0.66350 0.72490 0.98940 0.05900
H 	H 	0.00550 0.72230 0.39600 0.03500
H 	H 	0.94990 0.34350 0.38920 0.05200
H 	H 	0.03140 0.74820 0.50710 0.06600
H 	H 	0.02040 0.10140 0.35070 0.02700
H 	H 	0.75760 0.98740 0.46960 0.03100
H 	H 	0.17580 0.06540 0.42200 0.04400
H 	H 	0.39360 0.28020 0.42300 0.03900
H 	H 	0.73570 0.52330 0.40250 0.03700
H 	H 	0.27510 0.33650 0.51060 0.05900
H 	H 	0.27770 0.99450 0.10400 0.04000
H 	H 	0.65650 0.05010 0.11080 0.05200
H 	H 	0.25180 0.96860 0.99290 0.05900
H 	H 	0.10140 0.02040 0.85070 0.02900
H 	H 	0.98740 0.75760 0.96960 0.03500
H 	H 	0.06540 0.17580 0.92200 0.04300
H 	H 	0.28020 0.39360 0.92300 0.03900
H 	H 	0.52330 0.73570 0.90250 0.03700
H 	H 	0.33650 0.27510 0.01060 0.05900
H 	H 	0.99450 0.27770 0.60400 0.03500
H 	H 	0.05010 0.65650 0.61080 0.05200
H 	H 	0.96860 0.25180 0.49290 0.06600
H 	H 	0.97960 0.89860 0.64930 0.02700
H 	H 	0.24240 0.01260 0.53040 0.03100
H 	H 	0.82420 0.93460 0.57800 0.04400
H 	H 	0.60640 0.71980 0.57700 0.03900
H 	H 	0.26430 0.47670 0.59750 0.03700
H 	H 	0.72490 0.66350 0.48940 0.05900
H 	H 	0.72230 0.00550 0.89600 0.04000
H 	H 	0.34350 0.94990 0.88920 0.05200
H 	H 	0.74820 0.03140 0.00710 0.05900
C 	C 	0.91850 0.22450 0.14108 0.42200
C 	C 	0.95040 0.12700 0.09559 -0.11500
C 	C 	0.92790 0.00050 0.10979 0.01900
C 	C 	0.99400 0.15700 0.03910 -0.02200
C 	C 	0.01240 0.06320 0.99268 0.01000
C 	C 	0.94780 0.90780 0.06716 -0.09100
C 	C 	0.70638 0.42482 0.15020 0.43100
C 	C 	0.61282 0.43558 0.09528 -0.11500
C 	C 	0.64199 0.53981 0.06329 -0.02400
C 	C 	0.55770 0.54970 0.01002 0.01300
C 	C 	0.49710 0.33630 0.07516 0.02200
C 	C 	0.58620 0.65720 0.97623 -0.09400
C 	C 	0.96214 0.51586 0.31065 0.35500
C 	C 	0.97428 0.52832 0.38242 -0.09800
C 	C 	0.99995 0.65065 0.41802 0.00900
C 	C 	0.96777 0.42523 0.41356 -0.03400
C 	C 	0.98757 0.43863 0.48224 0.02300
C 	C 	0.01670 0.66610 0.48373 -0.09100
C 	C 	0.77550 0.08150 0.35892 0.42300
C 	C 	0.87300 0.04960 0.40441 -0.11900
C 	C 	0.99950 0.07210 0.39021 0.02500
C 	C 	0.84300 0.00600 0.46090 -0.01500
C 	C 	0.93680 0.98760 0.50732 0.00900
C 	C 	0.09220 0.05220 0.43284 -0.09500
C 	C 	0.57518 0.29362 0.34980 0.43100
C 	C 	0.56442 0.38718 0.40472 -0.11500
C 	C 	0.46019 0.35801 0.43671 -0.02400
C 	C 	0.45030 0.44230 0.48998 0.01300
C 	C 	0.66370 0.50290 0.42484 0.02200
C 	C 	0.34280 0.41380 0.52377 -0.09400
C 	C 	0.48414 0.03786 0.18935 0.35300
C 	C 	0.47168 0.02572 0.11758 -0.09400
C 	C 	0.34935 0.00005 0.08198 -0.00300
C 	C 	0.57477 0.03223 0.08644 -0.03400
C 	C 	0.56137 0.01243 0.01776 0.01800
C 	C 	0.33390 0.98330 0.01627 -0.07500
C 	C 	0.08150 0.77550 0.85892 0.42200
C 	C 	0.04960 0.87300 0.90441 -0.11500
C 	C 	0.07210 0.99950 0.89021 0.01900
C 	C 	0.00600 0.84300 0.96090 -0.02200
C 	C 	0.98760 0.93680 0.00732 0.01000
C 	C 	0.05220 0.09220 0.93284 -0.09100
C 	C 	0.29362 0.57518 0.84980 0.43100
C 	C 	0.38718 0.56442 0.90472 -0.11500
C 	C 	0.35801 0.46019 0.93671 -0.02400
C 	C 	0.44230 0.45030 0.98998 0.01300
C 	C 	0.50290 0.66370 0.92484 0.02200
C 	C 	0.41380 0.34280 0.02377 -0.09400
C 	C 	0.03786 0.48414 0.68935 0.35500
C 	C 	0.02572 0.47168 0.61758 -0.09800
C 	C 	0.00005 0.34935 0.58198 0.00900
C 	C 	0.03223 0.57477 0.58644 -0.03400
C 	C 	0.01243 0.56137 0.51776 0.02300
C 	C 	0.98330 0.33390 0.51627 -0.09100
C 	C 	0.22450 0.91850 0.64108 0.42300
C 	C 	0.12700 0.95040 0.59559 -0.11900
C 	C 	0.00050 0.92790 0.60979 0.02500
C 	C 	0.15700 0.99400 0.53910 -0.01500
C 	C 	0.06320 0.01240 0.49268 0.00900
C 	C 	0.90780 0.94780 0.56716 -0.09500
C 	C 	0.42482 0.70638 0.65020 0.43100
C 	C 	0.43558 0.61282 0.59528 -0.11500
C 	C 	0.53981 0.64199 0.56329 -0.02400
C 	C 	0.54970 0.55770 0.51002 0.01300
C 	C 	0.33630 0.49710 0.57516 0.02200
C 	C 	0.65720 0.58620 0.47623 -0.09400
C 	C 	0.51586 0.96214 0.81065 0.35300
C 	C 	0.52832 0.97428 0.88242 -0.09400
C 	C 	0.65065 0.99995 0.91802 -0.00300
C 	C 	0.42523 0.96777 0.91356 -0.03400
C 	C 	0.43863 0.98757 0.98224 0.01800
C 	C 	0.66610 0.01670 0.98373 -0.07500
O 	O 	0.95715 0.33825 0.13217 -0.56500
O 	O 	0.85533 0.18121 0.18491 -0.48700
O 	O 	0.81207 0.51045 0.16087 -0.55600
O 	O 	0.67267 0.32995 0.17989 -0.49100
O 	O 	0.00557 0.61293 0.28451 -0.49900
O 	O 	0.91605 0.40633 0.27633 -0.61300
O 	O 	0.66175 0.04285 0.36783 -0.56500
O 	O 	0.81879 0.14467 0.31509 -0.48700
O 	O 	0.48955 0.18793 0.33913 -0.55600
O 	O 	0.67005 0.32733 0.32011 -0.49100
O 	O 	0.38707 0.99443 0.21549 -0.49800
O 	O 	0.59367 0.08395 0.22367 -0.61200
O 	O 	0.04285 0.66175 0.86783 -0.56500
O 	O 	0.14467 0.81879 0.81509 -0.48700
O 	O 	0.18793 0.48955 0.83913 -0.55600
O 	O 	0.32733 0.67005 0.82011 -0.49100
O 	O 	0.99443 0.38707 0.71549 -0.49900
O 	O 	0.08395 0.59367 0.72367 -0.61300
O 	O 	0.33825 0.95715 0.63217 -0.56500
O 	O 	0.18121 0.85533 0.68491 -0.48700
O 	O 	0.51045 0.81207 0.66087 -0.55600
O 	O 	0.32995 0.67267 0.67989 -0.49100
O 	O 	0.61293 0.00557 0.78451 -0.49800
O 	O 	0.40633 0.91605 0.77633 -0.61200
