data_crystal

_cell_length_a 11.25770
_cell_length_b 11.25770
_cell_length_c 20.94600
_cell_angle_alpha 95.88220
_cell_angle_beta  95.88220
_cell_angle_gamma 106.47800

_symmetry_space_group_name_	'P 1'
_symmetry_space_group_name_H-M	'P 1'

loop_
_symmetry_equiv_pos_as_xyz
  x,y,z

loop_
_atom_site_label
_atom_site_type_symbol
_atom_site_fract_x
_atom_site_fract_y
_atom_site_fract_z
_atom_site_charge
Mg	Mg	0.50708 0.02234 0.30786 1.45700
Mg	Mg	0.97766 0.49292 0.19214 1.45700
Mg	Mg	0.49292 0.97766 0.69214 1.45700
Mg	Mg	0.02234 0.50708 0.80786 1.45700
Mg	Mg	0.75239 0.24761 0.25000 1.47700
Mg	Mg	0.24761 0.75239 0.75000 1.47700
H 	H 	0.65270 0.04730 0.10920 0.05600
H 	H 	0.28670 0.00350 0.10540 0.03600
H 	H 	0.74000 0.02280 0.00500 0.06100
H 	H 	0.76150 0.98930 0.46960 0.03100
H 	H 	0.01790 0.10490 0.35330 0.02600
H 	H 	0.82900 0.93240 0.57640 0.04900
H 	H 	0.72170 0.65230 0.49100 0.06300
H 	H 	0.73080 0.51540 0.40410 0.03500
H 	H 	0.39690 0.28770 0.42230 0.04100
H 	H 	0.95270 0.34730 0.39080 0.05600
H 	H 	0.99650 0.71330 0.39460 0.03200
H 	H 	0.97720 0.26000 0.49500 0.06900
H 	H 	0.01070 0.23850 0.03040 0.03500
H 	H 	0.89510 0.98210 0.14670 0.02900
H 	H 	0.06760 0.17100 0.92360 0.04700
H 	H 	0.34770 0.27830 0.00900 0.06300
H 	H 	0.48460 0.26920 0.09590 0.03500
H 	H 	0.71230 0.60310 0.07770 0.04100
H 	H 	0.34730 0.95270 0.89080 0.05600
H 	H 	0.71330 0.99650 0.89460 0.03600
H 	H 	0.26000 0.97720 0.99500 0.06100
H 	H 	0.23850 0.01070 0.53040 0.03100
H 	H 	0.98210 0.89510 0.64670 0.02600
H 	H 	0.17100 0.06760 0.42360 0.04900
H 	H 	0.27830 0.34770 0.50900 0.06300
H 	H 	0.26920 0.48460 0.59590 0.03500
H 	H 	0.60310 0.71230 0.57770 0.04100
H 	H 	0.04730 0.65270 0.60920 0.05600
H 	H 	0.00350 0.28670 0.60540 0.03200
H 	H 	0.02280 0.74000 0.50500 0.06900
H 	H 	0.98930 0.76150 0.96960 0.03500
H 	H 	0.10490 0.01790 0.85330 0.02900
H 	H 	0.93240 0.82900 0.07640 0.04700
H 	H 	0.65230 0.72170 0.99100 0.06300
H 	H 	0.51540 0.73080 0.90410 0.03500
H 	H 	0.28770 0.39690 0.92230 0.04100
C 	C 	0.56030 0.01150 0.01790 0.02100
C 	C 	0.57380 0.03140 0.08570 -0.04200
C 	C 	0.47440 0.02780 0.11770 -0.08700
C 	C 	0.35470 0.00610 0.08330 0.00100
C 	C 	0.66100 0.01100 0.98250 -0.08100
C 	C 	0.48890 0.04190 0.19090 0.35000
C 	C 	0.93810 0.98750 0.50780 0.01200
C 	C 	0.84380 0.00780 0.46120 -0.01600
C 	C 	0.87370 0.05310 0.40560 -0.12200
C 	C 	0.99770 0.07530 0.39190 0.02800
C 	C 	0.90960 0.94600 0.56580 -0.10300
C 	C 	0.77890 0.08510 0.35950 0.42400
C 	C 	0.65550 0.57990 0.47760 -0.10300
C 	C 	0.66110 0.49710 0.42580 0.02700
C 	C 	0.56480 0.38620 0.40500 -0.11700
C 	C 	0.46170 0.36110 0.43620 -0.02700
C 	C 	0.54900 0.55540 0.51060 0.01500
C 	C 	0.57650 0.29310 0.35040 0.43500
C 	C 	0.98850 0.43970 0.48210 0.02700
C 	C 	0.96860 0.42620 0.41430 -0.04300
C 	C 	0.97220 0.52560 0.38230 -0.09100
C 	C 	0.99390 0.64530 0.41670 0.01200
C 	C 	0.98900 0.33900 0.51750 -0.09900
C 	C 	0.95810 0.51110 0.30910 0.35100
C 	C 	0.01250 0.06190 0.99220 0.01400
C 	C 	0.99220 0.15620 0.03880 -0.02400
C 	C 	0.94690 0.12630 0.09440 -0.11700
C 	C 	0.92470 0.00230 0.10810 0.02100
C 	C 	0.05400 0.09040 0.93420 -0.09900
C 	C 	0.91490 0.22110 0.14050 0.42200
C 	C 	0.42010 0.34450 0.02240 -0.10300
C 	C 	0.50290 0.33890 0.07420 0.02700
C 	C 	0.61380 0.43520 0.09500 -0.11700
C 	C 	0.63890 0.53830 0.06380 -0.02700
C 	C 	0.44460 0.45100 0.98940 0.01600
C 	C 	0.70690 0.42350 0.14960 0.43500
C 	C 	0.43970 0.98850 0.98210 0.02100
C 	C 	0.42620 0.96860 0.91430 -0.04200
C 	C 	0.52560 0.97220 0.88230 -0.08700
C 	C 	0.64530 0.99390 0.91670 0.00100
C 	C 	0.33900 0.98900 0.01750 -0.08100
C 	C 	0.51110 0.95810 0.80910 0.35000
C 	C 	0.06190 0.01250 0.49220 0.01200
C 	C 	0.15620 0.99220 0.53880 -0.01600
C 	C 	0.12630 0.94690 0.59440 -0.12200
C 	C 	0.00230 0.92470 0.60810 0.02800
C 	C 	0.09040 0.05400 0.43420 -0.10300
C 	C 	0.22110 0.91490 0.64050 0.42400
C 	C 	0.34450 0.42010 0.52240 -0.10300
C 	C 	0.33890 0.50290 0.57420 0.02700
C 	C 	0.43520 0.61380 0.59500 -0.11700
C 	C 	0.53830 0.63890 0.56380 -0.02700
C 	C 	0.45100 0.44460 0.48940 0.01500
C 	C 	0.42350 0.70690 0.64960 0.43500
C 	C 	0.01150 0.56030 0.51790 0.02700
C 	C 	0.03140 0.57380 0.58570 -0.04300
C 	C 	0.02780 0.47440 0.61770 -0.09100
C 	C 	0.00610 0.35470 0.58330 0.01200
C 	C 	0.01100 0.66100 0.48250 -0.09900
C 	C 	0.04190 0.48890 0.69090 0.35100
C 	C 	0.98750 0.93810 0.00780 0.01400
C 	C 	0.00780 0.84380 0.96120 -0.02400
C 	C 	0.05310 0.87370 0.90560 -0.11700
C 	C 	0.07530 0.99770 0.89190 0.02100
C 	C 	0.94600 0.90960 0.06580 -0.09900
C 	C 	0.08510 0.77890 0.85950 0.42200
C 	C 	0.57990 0.65550 0.97760 -0.10300
C 	C 	0.49710 0.66110 0.92580 0.02700
C 	C 	0.38620 0.56480 0.90500 -0.11700
C 	C 	0.36110 0.46170 0.93620 -0.02700
C 	C 	0.55540 0.54900 0.01060 0.01600
C 	C 	0.29310 0.57650 0.85040 0.43500
O 	O 	0.66620 0.04740 0.36900 -0.56500
O 	O 	0.82000 0.14680 0.31590 -0.48900
O 	O 	0.59640 0.08680 0.22357 -0.60800
O 	O 	0.39350 0.99970 0.21757 -0.49500
O 	O 	0.66860 0.32600 0.32066 -0.49400
O 	O 	0.49240 0.19020 0.34040 -0.55600
O 	O 	0.95260 0.33380 0.13100 -0.56500
O 	O 	0.85320 0.18000 0.18410 -0.48900
O 	O 	0.91320 0.40360 0.27643 -0.60900
O 	O 	0.00030 0.60650 0.28243 -0.49600
O 	O 	0.67400 0.33140 0.17934 -0.49400
O 	O 	0.80980 0.50760 0.15960 -0.55600
O 	O 	0.33380 0.95260 0.63100 -0.56500
O 	O 	0.18000 0.85320 0.68410 -0.48900
O 	O 	0.40360 0.91320 0.77643 -0.60800
O 	O 	0.60650 0.00030 0.78243 -0.49500
O 	O 	0.33140 0.67400 0.67934 -0.49400
O 	O 	0.50760 0.80980 0.65960 -0.55600
O 	O 	0.04740 0.66620 0.86900 -0.56500
O 	O 	0.14680 0.82000 0.81590 -0.48900
O 	O 	0.08680 0.59640 0.72357 -0.60900
O 	O 	0.99970 0.39350 0.71757 -0.49600
O 	O 	0.32600 0.66860 0.82066 -0.49400
O 	O 	0.19020 0.49240 0.84040 -0.55600
