data_crystal

_cell_length_a 11.22320
_cell_length_b 11.22320
_cell_length_c 21.25500
_cell_angle_alpha 95.80600
_cell_angle_beta  95.80600
_cell_angle_gamma 106.98500

_symmetry_space_group_name_	'P 1'
_symmetry_space_group_name_H-M	'P 1'

loop_
_symmetry_equiv_pos_as_xyz
  x,y,z

loop_
_atom_site_label
_atom_site_type_symbol
_atom_site_fract_x
_atom_site_fract_y
_atom_site_fract_z
_atom_site_charge
Mn	Mn	0.00036 0.48284 0.19210 1.24400
Mn	Mn	0.51716 0.99964 0.30790 1.24400
Mn	Mn	0.99964 0.51716 0.80790 1.24400
Mn	Mn	0.48284 0.00036 0.69210 1.24400
Mn	Mn	0.74737 0.25263 0.25000 1.31900
Mn	Mn	0.25263 0.74737 0.75000 1.31900
H 	H 	0.75650 0.46970 0.49340 0.07000
H 	H 	0.84820 0.45220 0.39100 0.05300
H 	H 	0.76740 0.98040 0.09450 0.03700
H 	H 	0.77680 0.84400 0.00920 0.06300
H 	H 	0.10510 0.21350 0.07690 0.04400
H 	H 	0.67060 0.56360 0.92250 0.04700
H 	H 	0.73750 0.50890 0.02870 0.04000
H 	H 	0.21870 0.50530 0.39760 0.03100
H 	H 	0.48260 0.40360 0.14730 0.03300
H 	H 	0.53030 0.24350 0.00660 0.07300
H 	H 	0.54780 0.15180 0.10900 0.05300
H 	H 	0.01960 0.23260 0.40550 0.03600
H 	H 	0.15600 0.22320 0.49080 0.06400
H 	H 	0.78650 0.89490 0.42310 0.04300
H 	H 	0.43640 0.32940 0.57750 0.04700
H 	H 	0.49110 0.26250 0.47130 0.04000
H 	H 	0.49470 0.78130 0.10240 0.03000
H 	H 	0.59640 0.51740 0.35270 0.03300
H 	H 	0.24350 0.53030 0.50660 0.07000
H 	H 	0.15180 0.54780 0.60900 0.05300
H 	H 	0.23260 0.01960 0.90550 0.03700
H 	H 	0.22320 0.15600 0.99080 0.06300
H 	H 	0.89490 0.78650 0.92310 0.04400
H 	H 	0.32940 0.43640 0.07750 0.04700
H 	H 	0.26250 0.49110 0.97130 0.04000
H 	H 	0.78130 0.49470 0.60240 0.03100
H 	H 	0.51740 0.59640 0.85270 0.03300
H 	H 	0.46970 0.75650 0.99340 0.07300
H 	H 	0.45220 0.84820 0.89100 0.05300
H 	H 	0.98040 0.76740 0.59450 0.03600
H 	H 	0.84400 0.77680 0.50920 0.06400
H 	H 	0.21350 0.10510 0.57690 0.04300
H 	H 	0.56360 0.67060 0.42250 0.04700
H 	H 	0.50890 0.73750 0.52870 0.04000
H 	H 	0.50530 0.21870 0.89760 0.03000
H 	H 	0.40360 0.48260 0.64730 0.03300
C 	C 	0.93950 0.48810 0.48252 0.02600
C 	C 	0.95050 0.94450 0.98965 0.01800
C 	C 	0.01620 0.46480 0.31263 0.34700
C 	C 	0.83580 0.48360 0.51610 -0.10000
C 	C 	0.92720 0.46980 0.41459 -0.03700
C 	C 	0.83760 0.99940 0.07310 0.01900
C 	C 	0.02830 0.47730 0.38374 -0.09600
C 	C 	0.84300 0.91740 0.02240 -0.09900
C 	C 	0.72290 0.42190 0.13950 0.37800
C 	C 	0.92430 0.20410 0.14810 0.39800
C 	C 	0.03990 0.13930 0.06300 -0.03600
C 	C 	0.93480 0.11160 0.09377 -0.10100
C 	C 	0.58980 0.55060 0.93320 -0.09200
C 	C 	0.65540 0.49260 0.03780 -0.03400
C 	C 	0.14950 0.50070 0.41890 0.01500
C 	C 	0.56170 0.51130 0.99240 0.01500
C 	C 	0.62630 0.45130 0.09410 -0.09900
C 	C 	0.50220 0.43060 0.10860 0.01000
C 	C 	0.51190 0.06050 0.01748 0.02800
C 	C 	0.05550 0.04950 0.51035 0.01800
C 	C 	0.53520 0.98380 0.18737 0.34800
C 	C 	0.51640 0.16420 0.98390 -0.10700
C 	C 	0.53020 0.07280 0.08541 -0.03500
C 	C 	0.00060 0.16240 0.42690 0.02300
C 	C 	0.52270 0.97170 0.11626 -0.09900
C 	C 	0.08260 0.15700 0.47760 -0.10100
C 	C 	0.57810 0.27710 0.36050 0.37800
C 	C 	0.79590 0.07570 0.35190 0.39800
C 	C 	0.86070 0.96010 0.43700 -0.03200
C 	C 	0.88840 0.06520 0.40623 -0.10500
C 	C 	0.44940 0.41020 0.56680 -0.09300
C 	C 	0.50740 0.34460 0.46220 -0.03400
C 	C 	0.49930 0.85050 0.08110 0.01900
C 	C 	0.48870 0.43830 0.50760 0.01500
C 	C 	0.54870 0.37370 0.40590 -0.09900
C 	C 	0.56940 0.49780 0.39140 0.01000
C 	C 	0.06050 0.51190 0.51748 0.02600
C 	C 	0.04950 0.05550 0.01035 0.01800
C 	C 	0.98380 0.53520 0.68737 0.34700
C 	C 	0.16420 0.51640 0.48390 -0.10000
C 	C 	0.07280 0.53020 0.58541 -0.03700
C 	C 	0.16240 0.00060 0.92690 0.01900
C 	C 	0.97170 0.52270 0.61626 -0.09600
C 	C 	0.15700 0.08260 0.97760 -0.09900
C 	C 	0.27710 0.57810 0.86050 0.37800
C 	C 	0.07570 0.79590 0.85190 0.39800
C 	C 	0.96010 0.86070 0.93700 -0.03600
C 	C 	0.06520 0.88840 0.90623 -0.10100
C 	C 	0.41020 0.44940 0.06680 -0.09200
C 	C 	0.34460 0.50740 0.96220 -0.03400
C 	C 	0.85050 0.49930 0.58110 0.01500
C 	C 	0.43830 0.48870 0.00760 0.01500
C 	C 	0.37370 0.54870 0.90590 -0.09900
C 	C 	0.49780 0.56940 0.89140 0.01000
C 	C 	0.48810 0.93950 0.98252 0.02800
C 	C 	0.94450 0.95050 0.48965 0.01800
C 	C 	0.46480 0.01620 0.81263 0.34800
C 	C 	0.48360 0.83580 0.01610 -0.10700
C 	C 	0.46980 0.92720 0.91459 -0.03500
C 	C 	0.99940 0.83760 0.57310 0.02300
C 	C 	0.47730 0.02830 0.88374 -0.09900
C 	C 	0.91740 0.84300 0.52240 -0.10100
C 	C 	0.42190 0.72290 0.63950 0.37800
C 	C 	0.20410 0.92430 0.64810 0.39800
C 	C 	0.13930 0.03990 0.56300 -0.03200
C 	C 	0.11160 0.93480 0.59377 -0.10500
C 	C 	0.55060 0.58980 0.43320 -0.09300
C 	C 	0.49260 0.65540 0.53780 -0.03400
C 	C 	0.50070 0.14950 0.91890 0.01900
C 	C 	0.51130 0.56170 0.49240 0.01500
C 	C 	0.45130 0.62630 0.59410 -0.09900
C 	C 	0.43060 0.50220 0.60860 0.01000
O 	O 	0.90812 0.42148 0.27969 -0.53400
O 	O 	0.01050 0.30690 0.15941 -0.49100
O 	O 	0.83236 0.17064 0.17776 -0.44800
O 	O 	0.11200 0.50520 0.28674 -0.44900
O 	O 	0.83550 0.45790 0.12953 -0.49300
O 	O 	0.68210 0.36050 0.18351 -0.43900
O 	O 	0.57852 0.09188 0.22031 -0.53400
O 	O 	0.69310 0.98950 0.34059 -0.49000
O 	O 	0.82936 0.16764 0.32224 -0.44800
O 	O 	0.49480 0.88800 0.21326 -0.45000
O 	O 	0.54210 0.16450 0.37047 -0.49300
O 	O 	0.63950 0.31790 0.31649 -0.43900
O 	O 	0.09188 0.57852 0.72031 -0.53400
O 	O 	0.98950 0.69310 0.84059 -0.49100
O 	O 	0.16764 0.82936 0.82224 -0.44800
O 	O 	0.88800 0.49480 0.71326 -0.44900
O 	O 	0.16450 0.54210 0.87047 -0.49300
O 	O 	0.31790 0.63950 0.81649 -0.43900
O 	O 	0.42148 0.90812 0.77969 -0.53400
O 	O 	0.30690 0.01050 0.65941 -0.49000
O 	O 	0.17064 0.83236 0.67776 -0.44800
O 	O 	0.50520 0.11200 0.78674 -0.45000
O 	O 	0.45790 0.83550 0.62953 -0.49300
O 	O 	0.36050 0.68210 0.68351 -0.43900
