data_crystal

_audit_creation_method 'AiiDA-DDEC plugin'

_cell_length_a        34.99936
_cell_length_b        34.98949
_cell_length_c        35.09613

_cell_angle_alpha     59.87161
_cell_angle_beta     59.90910
_cell_angle_gamma     60.11542

_symmetry_space_group_name_Hall 'P 1'
_symmetry_space_group_name_H-M  'P 1'

loop_
_symmetry_equiv_pos_as_xyz
 'x,y,z'

loop_
_atom_site_label
_atom_site_type_symbol
_atom_site_fract_x
_atom_site_fract_y
_atom_site_fract_z
_atom_site_charge
Cu         Cu      0.76777   0.99656   0.00156   0.92167
Cu         Cu      0.69776   0.99662   0.00177   0.91911
Cu         Cu     -0.00043   0.76624   0.23148   0.91930
Cu         Cu     -0.00078   0.69609   0.30120   0.91933
Cu         Cu     -0.00047   0.23289   0.76800   0.92143
Cu         Cu     -0.00057   0.30309   0.69822   0.92012
Cu         Cu      0.23230  -0.00009   0.00036   0.92081
Cu         Cu      0.30234  -0.00030   0.00046   0.91981
Cu         Cu      0.76687   0.00092   0.23312   0.92085
Cu         Cu      0.69699   0.00019   0.30311   0.91965
Cu         Cu      0.00270   0.23161   0.00005   0.92125
Cu         Cu      0.00188   0.30187   0.00023   0.91951
Cu         Cu      0.00063   0.76691   0.99809   0.92126
Cu         Cu      0.00129   0.69679   0.99766   0.91943
Cu         Cu      0.23251   0.00036   0.76738   0.92250
Cu         Cu      0.30241   0.00166   0.69723   0.92077
Cu         Cu      0.76855   0.23022   0.00013   0.91992
Cu         Cu      0.69879   0.30027   0.00007   0.92201
Cu         Cu      0.00027   0.00072   0.76679   0.92125
Cu         Cu     -0.00027   0.00114   0.69708   0.91953
Cu         Cu      0.99890  -0.00075   0.23335   0.92097
Cu         Cu      0.99897   0.99887   0.30322   0.91979
Cu         Cu      0.23275   0.76709  -0.00082   0.92114
Cu         Cu      0.30275   0.69740  -0.00082   0.91837
H          H       0.73156   0.85068   0.02623   0.14317
H          H       0.85480   0.73061   0.38595   0.14291
H          H       0.02347   0.38897   0.73281   0.14268
H          H       0.38571   0.02997   0.85464   0.14298
H          H       0.72843   0.03131   0.38655   0.14225
H          H       0.85509   0.38320   0.03117   0.14328
H          H       0.03321   0.72976   0.85099   0.14226
H          H       0.38683   0.85656   0.72978   0.14284
H          H       0.73082   0.38582   0.85590   0.14252
H          H       0.85464   0.02790   0.73159   0.14348
H          H       0.02243   0.85416   0.38841   0.14363
H          H       0.38612   0.73050   0.02868   0.14208
H          H       0.14958   0.27043   0.96855   0.14252
H          H       0.26945   0.14739   0.61435   0.14334
H          H       0.61273   0.97126   0.27047   0.14291
H          H       0.96598   0.61524   0.14495   0.14133
H          H       0.97236   0.27078   0.61264   0.14334
H          H       0.61426   0.14348   0.97140   0.14290
H          H       0.26703   0.97672   0.14449   0.14296
H          H       0.14669   0.61323   0.26973   0.14241
H          H       0.61359   0.27089   0.14663   0.14313
H          H       0.97328   0.14423   0.26975   0.14235
H          H       0.14489   0.97645   0.61090   0.14290
H          H       0.27124   0.61515   0.96584   0.14298
H          H       0.27232   0.14629   0.96897   0.14285
H          H       0.14471   0.26946   0.61303   0.14218
H          H       0.96726   0.61368   0.26841   0.14178
H          H       0.61251   0.97236   0.14677   0.14274
H          H       0.26792   0.97945   0.60923   0.14273
H          H       0.14731   0.61417   0.96737   0.14283
H          H       0.97813   0.26707   0.14520   0.14256
H          H       0.61156   0.14622   0.26943   0.14221
H          H       0.26951   0.61336   0.14523   0.14272
H          H       0.14407   0.97410   0.26892   0.14322
H          H       0.97011   0.14830   0.61259   0.14305
H          H       0.61600   0.26619   0.97169   0.14247
H          H       0.85683   0.72919   0.02189   0.14235
H          H       0.73176   0.85441   0.38911   0.14300
H          H       0.38725   0.02927   0.73096   0.14340
H          H       0.02721   0.38780   0.85486   0.14249
H          H       0.02399   0.72971   0.38843   0.14286
H          H       0.38593   0.85395   0.02940   0.14351
H          H       0.73048   0.02773   0.85472   0.14224
H          H       0.85356   0.38834   0.73134   0.14344
H          H       0.38902   0.73192   0.85260   0.14228
H          H       0.03101   0.85463   0.72827   0.14309
H          H       0.85185   0.03061   0.38766   0.14278
H          H       0.73250   0.38230   0.02999   0.14289
H          H       0.85895   0.85649   0.01053   0.14313
H          H       0.85827   0.85969   0.27046   0.14230
H          H       0.00980   0.27154   0.86046   0.14255
H          H       0.27208   0.00857   0.85975   0.14121
H          H       0.85735   0.01429   0.27121   0.14249
H          H       0.86229   0.26875   0.00954   0.14176
H          H       0.01294   0.85852   0.85715   0.14251
H          H       0.27149   0.85860   0.85886   0.14183
H          H       0.85865   0.26922   0.85742   0.14316
H          H       0.85894   0.00882   0.86066   0.14274
H          H       0.00777   0.85789   0.27190   0.14228
H          H       0.26970   0.85840   0.01306   0.14279
H          H       0.14273   0.14203   0.98820   0.14239
H          H       0.14164   0.14206   0.73115   0.14219
H          H       0.72980   0.98675   0.14281   0.14226
H          H       0.99009   0.72756   0.13902   0.14216
H          H       0.99038   0.14129   0.72755   0.14194
H          H       0.72998   0.13663   0.99064   0.14299
H          H       0.14035   0.98734   0.14201   0.14277
H          H       0.14003   0.72694   0.14013   0.14252
H          H       0.72788   0.14190   0.14128   0.14271
H          H       0.98975   0.14053   0.14145   0.14291
H          H       0.14074   0.99198   0.72709   0.14225
H          H       0.14198   0.72874   0.98721   0.14252
H          H       0.61078   0.73027   0.04414   0.13828
H          H       0.73312   0.60690   0.61365   0.13868
H          H       0.04732   0.61114   0.60870   0.13782
H          H       0.61128   0.05055   0.73287   0.13778
H          H       0.60801   0.04708   0.61325   0.13476
H          H       0.73236   0.60546   0.04855   0.13819
H          H       0.05414   0.60797   0.72983   0.13754
H          H       0.61106   0.73071   0.60433   0.13824
H          H       0.60593   0.61279   0.73287   0.13798
H          H       0.73374   0.04686   0.60876   0.13867
H          H       0.04954   0.73355   0.60859   0.13867
H          H       0.60858   0.60531   0.04951   0.13834
H          H       0.27141   0.39198   0.94615   0.13819
H          H       0.39030   0.26835   0.39099   0.13822
H          H       0.38963   0.95206   0.39014   0.13783
H          H       0.94584   0.38958   0.26949   0.13853
H          H       0.94041   0.39651   0.39162   0.13897
H          H       0.39365   0.26789   0.95053   0.13793
H          H       0.39074   0.95055   0.26737   0.13863
H          H       0.26840   0.39294   0.39131   0.13777
H          H       0.39317   0.39340   0.26930   0.13875
H          H       0.95143   0.26699   0.39357   0.13756
H          H       0.26627   0.95222   0.38975   0.13807
H          H       0.39289   0.39192   0.95000   0.13890
C          C       0.76910   0.90901   0.01472   0.58491
C          C       0.79268   0.85860   0.01826  -0.02932
C          C       0.76815   0.83359   0.02368  -0.11687
C          C       0.91180   0.76938   0.30256   0.58512
C          C       0.86142   0.79269   0.32589  -0.03065
C          C       0.83703   0.76725   0.36974  -0.11563
C          C       0.01082   0.30540   0.77153   0.58551
C          C       0.01615   0.32811   0.79426  -0.03150
C          C       0.02226   0.37195   0.76898  -0.11508
C          C       0.30444   0.01255   0.91311   0.58465
C          C       0.32683   0.01858   0.86222  -0.03036
C          C       0.36954   0.02698   0.83712  -0.11592
C          C       0.76784   0.01680   0.30405   0.58601
C          C       0.79034   0.02283   0.32645  -0.03076
C          C       0.76491   0.02937   0.36990  -0.11628
C          C       0.91438   0.30194   0.01475   0.58508
C          C       0.86356   0.32378   0.02020  -0.02938
C          C       0.83795   0.36655   0.02821  -0.11735
C          C       0.01642   0.76884   0.90988   0.58524
C          C       0.02280   0.79178   0.85887  -0.03132
C          C       0.03061   0.76646   0.83356  -0.11521
C          C       0.30353   0.91313   0.76894   0.58642
C          C       0.32678   0.86251   0.79177  -0.03124
C          C       0.37042   0.83831   0.76620  -0.11556
C          C       0.76983   0.30198   0.91220   0.58599
C          C       0.79226   0.32519   0.86147  -0.03055
C          C       0.76703   0.36936   0.83754  -0.11575
C          C       0.91253   0.01344   0.77039   0.58821
C          C       0.86176   0.01837   0.79355  -0.03105
C          C       0.83688   0.02562   0.76808  -0.11568
C          C       0.01042   0.91166   0.30504   0.58663
C          C       0.01488   0.86097   0.32790  -0.03146
C          C       0.02078   0.83628   0.37164  -0.11716
C          C       0.30344   0.76884   0.01493   0.58525
C          C       0.32572   0.79187   0.02057  -0.03132
C          C       0.36932   0.76689   0.02683  -0.11562
C          C       0.09032   0.23116   0.98472   0.58716
C          C       0.14125   0.20855   0.97874  -0.03129
C          C       0.16669   0.23380   0.97116  -0.11584
C          C       0.23102   0.08903   0.69694   0.58548
C          C       0.20787   0.13985   0.67477  -0.03189
C          C       0.23282   0.16479   0.63092  -0.11511
C          C       0.69595   0.98478   0.23187   0.58538
C          C       0.67350   0.97930   0.20899  -0.03072
C          C       0.62970   0.97315   0.23408  -0.11571
C          C       0.98536   0.69564   0.08588   0.58628
C          C       0.97852   0.67353   0.13700  -0.02989
C          C       0.96923   0.63123   0.16244  -0.11427
C          C       0.98706   0.23112   0.69508   0.58566
C          C       0.98147   0.20853   0.67245  -0.03160
C          C       0.97410   0.23433   0.62937  -0.11621
C          C       0.69638   0.08441   0.98702   0.58446
C          C       0.67436   0.13530   0.98113  -0.03179
C          C       0.63128   0.16074   0.97372  -0.11571
C          C       0.22950   0.98726   0.08771   0.58558
C          C       0.20617   0.98236   0.13834  -0.03054
C          C       0.23087   0.97759   0.16264  -0.11512
C          C       0.08725   0.69415   0.23020   0.58585
C          C       0.13829   0.67219   0.20736  -0.02882
C          C       0.16387   0.62970   0.23292  -0.11733
C          C       0.69531   0.23114   0.08802   0.58651
C          C       0.67275   0.20864   0.13899  -0.03009
C          C       0.62977   0.23412   0.16407  -0.11709
C          C       0.98662   0.08662   0.23095   0.58591
C          C       0.98202   0.13733   0.20798  -0.03037
C          C       0.97620   0.16182   0.23308  -0.11489
C          C       0.08737   0.98889   0.69434   0.58811
C          C       0.13789   0.98485   0.67105  -0.03283
C          C       0.16251   0.97907   0.62726  -0.11555
C          C       0.23168   0.69638   0.98294   0.58606
C          C       0.20908   0.67432   0.97655  -0.03000
C          C       0.23465   0.63161   0.96844  -0.11622
C          C       0.23223   0.08802   0.98483   0.58391
C          C       0.21000   0.13901   0.97885  -0.02958
C          C       0.23578   0.16393   0.97132  -0.11610
C          C       0.08742   0.23113   0.69740   0.58623
C          C       0.13822   0.20839   0.67461  -0.02937
C          C       0.16269   0.23340   0.63039  -0.11597
C          C       0.98534   0.69481   0.22892   0.58598
C          C       0.97884   0.67293   0.20620  -0.03088
C          C       0.96986   0.63045   0.23183  -0.11489
C          C       0.69636   0.98392   0.08923   0.58734
C          C       0.67361   0.97940   0.13982  -0.03101
C          C       0.62965   0.97365   0.16455  -0.11536
C          C       0.23005   0.98999   0.69363   0.58541
C          C       0.20688   0.98581   0.67051  -0.02989
C          C       0.23168   0.98058   0.62646  -0.11609
C          C       0.08856   0.69527   0.98442   0.58732
C          C       0.13966   0.67370   0.97756  -0.03101
C          C       0.16494   0.63100   0.96940  -0.11637
C          C       0.98956   0.22944   0.08761   0.58551
C          C       0.98406   0.20633   0.13844  -0.02978
C          C       0.97870   0.23097   0.16316  -0.11547
C          C       0.69438   0.08806   0.23051   0.58561
C          C       0.67203   0.13903   0.20789  -0.03117
C          C       0.62878   0.16403   0.23315  -0.11548
C          C       0.22975   0.69453   0.08662   0.58453
C          C       0.20715   0.67227   0.13769  -0.02944
C          C       0.23295   0.62971   0.16295  -0.11723
C          C       0.08680   0.98476   0.23124   0.58472
C          C       0.13733   0.98085   0.20792  -0.03119
C          C       0.16177   0.97605   0.23252  -0.11593
C          C       0.98583   0.08893   0.69467   0.58596
C          C       0.98059   0.13982   0.67226  -0.03003
C          C       0.97302   0.16539   0.62925  -0.11733
C          C       0.69749   0.22651   0.98749   0.58749
C          C       0.67517   0.20388   0.98148  -0.03085
C          C       0.63219   0.22968   0.97396  -0.11498
C          C       0.91361   0.76809   0.01046   0.58581
C          C       0.86279   0.79046   0.01593  -0.03000
C          C       0.83854   0.76520   0.02129  -0.11613
C          C       0.76951   0.91304   0.30576   0.58650
C          C       0.79261   0.86208   0.32770  -0.03069
C          C       0.76791   0.83687   0.37153  -0.11722
C          C       0.30516   0.01310   0.76982   0.58387
C          C       0.32742   0.01862   0.79287  -0.03077
C          C       0.37034   0.02668   0.76755  -0.11599
C          C       0.01445   0.30440   0.91284   0.58447
C          C       0.01830   0.32753   0.86246  -0.03037
C          C       0.02440   0.37135   0.83749  -0.11657
C          C       0.01185   0.76786   0.30472   0.58714
C          C       0.01573   0.79129   0.32784  -0.03271
C          C       0.02165   0.76633   0.37161  -0.11661
C          C       0.30309   0.91184   0.01538   0.58266
C          C       0.32574   0.86100   0.02075  -0.03041
C          C       0.36934   0.83623   0.02713  -0.11755
C          C       0.76956   0.01108   0.91375   0.58326
C          C       0.79238   0.01763   0.86268  -0.02984
C          C       0.76710   0.02530   0.83736  -0.11581
C          C       0.91162   0.30456   0.76868   0.58508
C          C       0.86087   0.32661   0.79189  -0.03087
C          C       0.83598   0.37082   0.76760  -0.11623
C          C       0.30602   0.76976   0.91169   0.58538
C          C       0.32824   0.79295   0.86075  -0.03123
C          C       0.37172   0.76833   0.83531  -0.11515
C          C       0.01508   0.91281   0.76783   0.58483
C          C       0.02183   0.86160   0.79017  -0.02984
C          C       0.02941   0.83664   0.76459  -0.11752
C          C       0.91073   0.01535   0.30542   0.58358
C          C       0.85952   0.02223   0.32719  -0.02999
C          C       0.83430   0.02896   0.37056  -0.11666
C          C       0.77225   0.30127   0.01307   0.58382
C          C       0.79498   0.32336   0.01931  -0.03085
C          C       0.76908   0.36606   0.02746  -0.11530
C          C       0.83992   0.83701   0.01476  -0.08911
C          C       0.79075   0.78642   0.02562   0.11901
C          C       0.76599   0.76104   0.03121  -0.07456
C          C       0.74443   0.73924   0.03568  -0.03080
C          C       0.72058   0.71575   0.04012  -0.03134
C          C       0.69879   0.69469   0.04373  -0.07254
C          C       0.67437   0.67069   0.04636   0.13072
C          C       0.83925   0.84003   0.30456  -0.08760
C          C       0.78983   0.78899   0.39294   0.11844
C          C       0.76529   0.76297   0.43711  -0.07472
C          C       0.74467   0.73974   0.47554  -0.02987
C          C       0.72152   0.71525   0.51813  -0.03236
C          C       0.70024   0.69370   0.55738  -0.07192
C          C       0.67496   0.67128   0.60345   0.12911
C          C       0.01451   0.30560   0.84092  -0.08769
C          C       0.02685   0.39396   0.79022   0.11922
C          C       0.03338   0.43812   0.76461  -0.07519
C          C       0.03896   0.47654   0.74220  -0.03058
C          C       0.04442   0.51901   0.71783  -0.03143
C          C       0.04855   0.55807   0.69597  -0.07285
C          C       0.05084   0.60400   0.67196   0.13061
C          C       0.30540   0.01485   0.84015  -0.08783
C          C       0.39176   0.03126   0.78939   0.11844
C          C       0.43548   0.03864   0.76443  -0.07605
C          C       0.47431   0.04317   0.74380  -0.02905
C          C       0.51761   0.04658   0.72110  -0.03156
C          C       0.55757   0.04831   0.70038  -0.07292
C          C       0.60406   0.04889   0.67593   0.13124
C          C       0.83755   0.01963   0.30483  -0.08854
C          C       0.78657   0.03269   0.39241   0.11979
C          C       0.76119   0.03796   0.43693  -0.07629
C          C       0.73940   0.04108   0.47623  -0.02891
C          C       0.71637   0.04385   0.51963  -0.03200
C          C       0.69606   0.04570   0.55942  -0.07272
C          C       0.67334   0.04735   0.60538   0.13106
C          C       0.84217   0.30187   0.01602  -0.08822
C          C       0.79030   0.38811   0.03208   0.11863
C          C       0.76446   0.43178   0.03918  -0.07470
C          C       0.74217   0.47042   0.04390  -0.02981
C          C       0.71810   0.51350   0.04752  -0.03205
C          C       0.69648   0.55327   0.04952  -0.07251
C          C       0.67304   0.59991   0.04945   0.12939
C          C       0.01905   0.83915   0.83717  -0.08788
C          C       0.03442   0.78855   0.78589   0.11848
C          C       0.04152   0.76317   0.76049  -0.07433
C          C       0.04631   0.74104   0.73923  -0.03051
C          C       0.05017   0.71734   0.71612  -0.03170
C          C       0.05229   0.69637   0.69527  -0.07287
C          C       0.05246   0.67325   0.67172   0.13039
C          C       0.30540   0.83986   0.83896  -0.08696
C          C       0.39316   0.79069   0.78748   0.11767
C          C       0.43685   0.76610   0.76116  -0.07364
C          C       0.47498   0.74518   0.73806  -0.03116
C          C       0.51750   0.72170   0.71399  -0.03091
C          C       0.55682   0.70002   0.69318  -0.07286
C          C       0.60303   0.67472   0.67120   0.13002
C          C       0.83907   0.30345   0.83869  -0.08831
C          C       0.78851   0.39263   0.79015   0.11917
C          C       0.76295   0.43738   0.76609  -0.07559
C          C       0.74052   0.47641   0.74561  -0.03010
C          C       0.71639   0.51935   0.72267  -0.03093
C          C       0.69471   0.55861   0.70170  -0.07336
C          C       0.67191   0.60418   0.67602   0.13055
C          C       0.83957   0.01460   0.84082  -0.08865
C          C       0.78917   0.02945   0.78966   0.11835
C          C       0.76433   0.03624   0.76393  -0.07461
C          C       0.74345   0.04087   0.74155  -0.03071
C          C       0.72052   0.04493   0.71755  -0.03114
C          C       0.69980   0.04760   0.69613  -0.07345
C          C       0.67528   0.04877   0.67334   0.13020
C          C       0.01251   0.83857   0.30581  -0.08643
C          C       0.02448   0.78854   0.39394   0.12049
C          C       0.03066   0.76369   0.43808  -0.07639
C          C       0.03568   0.74293   0.47659  -0.02930
C          C       0.04082   0.72009   0.51899  -0.03224
C          C       0.04506   0.69948   0.55784  -0.07218
C          C       0.04859   0.67505   0.60311   0.13027
C          C       0.30362   0.83889   0.01785  -0.08792
C          C       0.39163   0.78867   0.03042   0.11925
C          C       0.43598   0.76319   0.03621  -0.07491
C          C       0.47502   0.74060   0.04004  -0.03080
C          C       0.51829   0.71628   0.04329  -0.03014
C          C       0.55800   0.69462   0.04546  -0.07419
C          C       0.60408   0.67054   0.04707   0.13187
C          C       0.16284   0.16132   0.98227  -0.08787
C          C       0.21441   0.21170   0.96721   0.11820
C          C       0.24009   0.23687   0.96033  -0.07478
C          C       0.26196   0.25857   0.95548  -0.03029
C          C       0.28540   0.28219   0.95151  -0.03249
C          C       0.30645   0.30323   0.94916  -0.07141
C          C       0.32985   0.32715   0.94820   0.12896
C          C       0.16077   0.16162   0.69702  -0.08836
C          C       0.21045   0.21200   0.60821   0.11890
C          C       0.23534   0.23716   0.56358  -0.07499
C          C       0.25711   0.25865   0.52461  -0.02991
C          C       0.28065   0.28236   0.48166  -0.03272
C          C       0.30215   0.30368   0.44238  -0.07162
C          C       0.32662   0.32790   0.39675   0.13093
C          C       0.69579   0.98198   0.16201  -0.08785
C          C       0.60738   0.96997   0.21214   0.11777
C          C       0.56303   0.96405   0.23713  -0.07388
C          C       0.52419   0.95952   0.25852  -0.03069
C          C       0.48123   0.95540   0.28172  -0.03170
C          C       0.44176   0.95240   0.30267  -0.07296
C          C       0.39563   0.95088   0.32628   0.12973
C          C       0.98282   0.69474   0.15888  -0.08887
C          C       0.96452   0.60925   0.21032   0.11800
C          C       0.95581   0.56612   0.23606  -0.07486
C          C       0.94956   0.52800   0.25817  -0.02986
C          C       0.94471   0.48525   0.28211  -0.03166
C          C       0.94229   0.44550   0.30344  -0.07282
C          C       0.94267   0.39863   0.32784   0.13054
C          C       0.98446   0.16134   0.69416  -0.08751
C          C       0.96936   0.21313   0.60746   0.11932
C          C       0.96173   0.23928   0.56400  -0.07600
C          C       0.95588   0.26188   0.52586  -0.02954
C          C       0.95089   0.28565   0.48335  -0.03187
C          C       0.94760   0.30652   0.44408  -0.07259
C          C       0.94574   0.32916   0.39815   0.13087
C          C       0.69661   0.15676   0.98470  -0.08774
C          C       0.60976   0.20844   0.96986   0.11854
C          C       0.56580   0.23444   0.96330  -0.07619
C          C       0.52700   0.25725   0.95894  -0.02920
C          C       0.48404   0.28163   0.95501  -0.03228
C          C       0.44454   0.30342   0.95232  -0.07242
C          C       0.39873   0.32729   0.95011   0.12997
C          C       0.15952   0.98359   0.16093  -0.08816
C          C       0.20905   0.97392   0.21022   0.11819
C          C       0.23418   0.96833   0.23505  -0.07505
C          C       0.25617   0.96306   0.25672  -0.02997
C          C       0.28016   0.95782   0.28036  -0.03067
C          C       0.30181   0.95370   0.30172  -0.07355
C          C       0.32576   0.95131   0.32588   0.13008
C          C       0.15994   0.69385   0.15986  -0.08949
C          C       0.21168   0.60809   0.21103   0.11996
C          C       0.23751   0.56491   0.23668  -0.07459
C          C       0.25961   0.52678   0.25867  -0.03062
C          C       0.28337   0.48428   0.28254  -0.03130
C          C       0.30469   0.44496   0.30378  -0.07256
C          C       0.32813   0.39865   0.32760   0.13015
C          C       0.69431   0.16134   0.16092  -0.08792
C          C       0.60741   0.21208   0.21165   0.11956
C          C       0.56370   0.23740   0.23713  -0.07583
C          C       0.52523   0.25903   0.25912  -0.03069
C          C       0.48254   0.28275   0.28272  -0.03041
C          C       0.44326   0.30421   0.30380  -0.07355
C          C       0.39727   0.32824   0.32754   0.13136
C          C       0.98542   0.15960   0.16081  -0.08892
C          C       0.97427   0.20907   0.21098   0.11749
C          C       0.96840   0.23369   0.23648  -0.07401
C          C       0.96313   0.25467   0.25916  -0.03120
C          C       0.95749   0.27813   0.28357  -0.03198
C          C       0.95268   0.29969   0.30543  -0.07201
C          C       0.94855   0.32537   0.32894   0.13075
C          C       0.16005   0.98772   0.69299  -0.08730
C          C       0.20990   0.97663   0.60450   0.11886
C          C       0.23503   0.97037   0.56041  -0.07582
C          C       0.25661   0.96469   0.52219  -0.02920
C          C       0.28001   0.95907   0.47998  -0.03098
C          C       0.30102   0.95464   0.44122  -0.07297
C          C       0.32518   0.95189   0.39564   0.12972
C          C       0.16169   0.69565   0.98077  -0.08912
C          C       0.21284   0.60954   0.96458   0.11936
C          C       0.23828   0.56578   0.95760  -0.07611
C          C       0.26032   0.52706   0.95304  -0.02905
C          C       0.28417   0.48385   0.94973  -0.03242
C          C       0.30567   0.44397   0.94803  -0.07262
C          C       0.32945   0.39745   0.94784   0.13147
C          C       0.62805   0.69392   0.04589  -0.16492
C          C       0.69677   0.62562   0.62936  -0.16371
C          C       0.04908   0.62829   0.62614  -0.16392
C          C       0.62843   0.04969   0.69741  -0.16410
C          C       0.62664   0.04788   0.62985  -0.16217
C          C       0.69661   0.62358   0.04839  -0.16372
C          C       0.05293   0.62651   0.69446  -0.16336
C          C       0.62791   0.69552   0.62436  -0.16335
C          C       0.62509   0.62887   0.69678  -0.16479
C          C       0.69759   0.04773   0.62732  -0.16412
C          C       0.05039   0.69737   0.62599  -0.16467
C          C       0.62674   0.62346   0.04890  -0.16537
C          C       0.30688   0.37397   0.94715  -0.16477
C          C       0.37310   0.30471   0.37351  -0.16496
C          C       0.37191   0.95138   0.37252  -0.16275
C          C       0.94544   0.37291   0.30539  -0.16487
C          C       0.94249   0.37668   0.37435  -0.16585
C          C       0.37583   0.30401   0.94956  -0.16237
C          C       0.37254   0.95059   0.30315  -0.16429
C          C       0.30433   0.37494   0.37370  -0.16444
C          C       0.37474   0.37530   0.30483  -0.16509
C          C       0.94860   0.30370   0.37534  -0.16394
C          C       0.30236   0.95154   0.37226  -0.16451
C          C       0.37543   0.37402   0.94924  -0.16569
O          O       0.79325   0.92901   0.01166  -0.53780
O          O       0.72705   0.92833   0.01437  -0.53837
O          O       0.93156   0.79290   0.26094  -0.53177
O          O       0.93137   0.72789   0.32643  -0.54274
O          O       0.00626   0.26489   0.79613  -0.53489
O          O       0.01108   0.32830   0.72930  -0.54185
O          O       0.26267   0.01127   0.93273  -0.53441
O          O       0.32903   0.00870   0.93303  -0.53875
O          O       0.79202   0.01396   0.26300  -0.53473
O          O       0.72656   0.01409   0.32803  -0.54079
O          O       0.93490   0.26102   0.01144  -0.53537
O          O       0.93347   0.32602   0.01329  -0.54121
O          O       0.01360   0.79261   0.93001  -0.53588
O          O       0.01358   0.72764   0.92946  -0.53975
O          O       0.26196   0.93233   0.79278  -0.53378
O          O       0.32729   0.93337   0.72765  -0.54333
O          O       0.79359   0.26051   0.93169  -0.53492
O          O       0.72877   0.32590   0.93233  -0.54239
O          O       0.93311   0.00880   0.79476  -0.53553
O          O       0.93148   0.01378   0.72816  -0.54294
O          O       0.00832   0.93165   0.26368  -0.53350
O          O       0.00874   0.93112   0.32878  -0.54321
O          O       0.26263   0.79291   0.01142  -0.53478
O          O       0.32724   0.72727   0.01330  -0.54006
O          O       0.07047   0.20679   0.98790  -0.53691
O          O       0.07042   0.27253   0.98692  -0.54030
O          O       0.20732   0.06854   0.73807  -0.53729
O          O       0.27232   0.06988   0.67257  -0.53829
O          O       0.73700   0.98798   0.20784  -0.53601
O          O       0.67207   0.98659   0.27334  -0.54026
O          O       0.98781   0.73700   0.06607  -0.53473
O          O       0.98878   0.67132   0.06594  -0.54180
O          O       0.99219   0.20607   0.73518  -0.53660
O          O       0.98670   0.27352   0.67237  -0.53894
O          O       0.73702   0.06421   0.99092  -0.53411
O          O       0.67273   0.06492   0.98842  -0.53955
O          O       0.20642   0.98816   0.06809  -0.53613
O          O       0.27046   0.99070   0.06790  -0.54037
O          O       0.06752   0.73566   0.20658  -0.53703
O          O       0.06728   0.66964   0.27111  -0.53826
O          O       0.73650   0.20711   0.06839  -0.54057
O          O       0.67131   0.27223   0.06797  -0.53628
O          O       0.98898   0.06692   0.20707  -0.53621
O          O       0.98867   0.06679   0.27235  -0.53973
O          O       0.06741   0.99258   0.73504  -0.53563
O          O       0.06796   0.98888   0.67164  -0.54180
O          O       0.20729   0.73703   0.98683  -0.53577
O          O       0.27315   0.67272   0.98483  -0.53987
O          O       0.20745   0.06798   0.98905  -0.53769
O          O       0.27400   0.06824   0.98596  -0.53835
O          O       0.06801   0.20817   0.73956  -0.53457
O          O       0.06721   0.27158   0.67269  -0.54378
O          O       0.98925   0.73562   0.20469  -0.53478
O          O       0.98687   0.67091   0.27051  -0.54064
O          O       0.73827   0.98481   0.06947  -0.53433
O          O       0.67201   0.98696   0.06954  -0.54402
O          O       0.20634   0.99133   0.73524  -0.53724
O          O       0.27152   0.99218   0.67002  -0.53985
O          O       0.06819   0.73597   0.98823  -0.53646
O          O       0.06913   0.67120   0.98641  -0.54082
O          O       0.99176   0.20575   0.06778  -0.53794
O          O       0.99203   0.27082   0.06790  -0.53908
O          O       0.73573   0.06849   0.20661  -0.53424
O          O       0.67036   0.06798   0.27170  -0.54090
O          O       0.20605   0.73593   0.06685  -0.53422
O          O       0.27077   0.67037   0.06672  -0.53983
O          O       0.06710   0.98662   0.20764  -0.53493
O          O       0.06705   0.98672   0.27266  -0.54081
O          O       0.98638   0.06925   0.73661  -0.53812
O          O       0.98990   0.06901   0.66998  -0.53805
O          O       0.73833   0.20235   0.99093  -0.53291
O          O       0.67382   0.26803   0.98921  -0.54481
O          O       0.93315   0.79243   0.00782  -0.53639
O          O       0.93355   0.72661   0.00850  -0.53976
O          O       0.79315   0.93336   0.26450  -0.53709
O          O       0.72823   0.93240   0.32999  -0.53932
O          O       0.26428   0.00946   0.79393  -0.53707
O          O       0.32888   0.01202   0.72809  -0.53726
O          O       0.01365   0.26245   0.93233  -0.53395
O          O       0.01164   0.32852   0.93263  -0.54019
O          O       0.00914   0.79207   0.26360  -0.53682
O          O       0.01105   0.72584   0.32785  -0.53978
O          O       0.26248   0.93191   0.01139  -0.53229
O          O       0.32641   0.93137   0.01444  -0.54048
O          O       0.79299   0.00933   0.93356  -0.53561
O          O       0.72886   0.00704   0.93371  -0.53847
O          O       0.93124   0.26248   0.79141  -0.53758
O          O       0.93161   0.32975   0.72833  -0.53658
O          O       0.26446   0.79310   0.93150  -0.53769
O          O       0.33032   0.72879   0.93155  -0.53799
O          O       0.01440   0.93224   0.79093  -0.53608
O          O       0.01003   0.93321   0.72767  -0.53856
O          O       0.93075   0.01243   0.26440  -0.53753
O          O       0.93061   0.01206   0.32971  -0.53556
O          O       0.79627   0.26041   0.00961  -0.53253
O          O       0.73078   0.32519   0.01125  -0.54190

