data_crystal

_cell_length_a 10.68400
_cell_length_b 13.84820
_cell_length_c 14.96040
_cell_angle_alpha 76.46660
_cell_angle_beta  69.07920
_cell_angle_gamma 67.30940

_symmetry_space_group_name_	'P 1'
_symmetry_space_group_name_H-M	'P 1'

loop_
_symmetry_equiv_pos_as_xyz
  x,y,z

loop_
_atom_site_label
_atom_site_type_symbol
_atom_site_fract_x
_atom_site_fract_y
_atom_site_fract_z
_atom_site_charge
Ca	Ca	0.50665 0.96810 0.38326 1.49700
Ca	Ca	0.85801 0.53190 0.11674 1.49700
Ca	Ca	0.49335 0.03190 0.61674 1.49700
Ca	Ca	0.14199 0.46810 0.88326 1.49700
Ca	Ca	0.78306 0.75000 0.25000 1.51200
Ca	Ca	0.21694 0.25000 0.75000 1.51200
H 	H 	0.72940 0.18050 0.24570 0.04800
H 	H 	0.81710 0.31210 0.14910 0.00200
H 	H 	0.13870 0.09440 0.98400 0.01400
H 	H 	0.05410 0.96250 0.08470 0.05000
H 	H 	0.63060 0.83780 0.06460 0.01900
H 	H 	0.36920 0.13790 0.09510 0.03600
H 	H 	0.15560 0.31950 0.25430 0.04700
H 	H 	0.27830 0.18790 0.35090 0.00300
H 	H 	0.21710 0.40560 0.51600 0.02300
H 	H 	0.10130 0.53750 0.41530 0.05300
H 	H 	0.53300 0.66220 0.43540 0.01600
H 	H 	0.60220 0.36210 0.40490 0.04100
H 	H 	0.27060 0.81950 0.75430 0.04800
H 	H 	0.18290 0.68790 0.85090 0.00200
H 	H 	0.86130 0.90560 0.01600 0.01400
H 	H 	0.94590 0.03750 0.91530 0.05000
H 	H 	0.36940 0.16220 0.93540 0.01900
H 	H 	0.63080 0.86210 0.90490 0.03600
H 	H 	0.84440 0.68050 0.74570 0.04700
H 	H 	0.72170 0.81210 0.64910 0.00300
H 	H 	0.78290 0.59440 0.48400 0.02300
H 	H 	0.89870 0.46250 0.58470 0.05300
H 	H 	0.46700 0.33780 0.56460 0.01600
H 	H 	0.39780 0.63790 0.59510 0.04100
C 	C 	0.82160 0.97510 0.23670 0.36800
C 	C 	0.88260 0.05860 0.17440 -0.07000
C 	C 	0.81320 0.16290 0.19290 -0.04600
C 	C 	0.86470 0.24110 0.13530 0.02300
C 	C 	0.98700 0.21590 0.05670 -0.15000
C 	C 	0.04060 0.30230 0.99370 0.41900
C 	C 	0.05630 0.11190 0.03770 0.03500
C 	C 	0.00500 0.03380 0.09700 -0.03900
C 	C 	0.49860 0.97170 0.19850 0.34600
C 	C 	0.49830 0.98530 0.09570 -0.09600
C 	C 	0.57700 0.90380 0.03860 -0.02600
C 	C 	0.42230 0.08150 0.05650 -0.00400
C 	C 	0.03340 0.52490 0.26330 0.37800
C 	C 	0.11560 0.44140 0.32560 -0.07700
C 	C 	0.16900 0.33710 0.30710 -0.04100
C 	C 	0.24110 0.25890 0.36470 0.01900
C 	C 	0.25960 0.28410 0.44330 -0.14700
C 	C 	0.33660 0.19770 0.50630 0.42300
C 	C 	0.20590 0.38810 0.46230 0.01900
C 	C 	0.13580 0.46620 0.40300 -0.04000
C 	C 	0.66880 0.52830 0.30150 0.34800
C 	C 	0.57930 0.51470 0.40430 -0.09100
C 	C 	0.51940 0.59620 0.46140 -0.01500
C 	C 	0.56030 0.41850 0.44350 -0.02100
C 	C 	0.17840 0.02490 0.76330 0.36800
C 	C 	0.11740 0.94140 0.82560 -0.07000
C 	C 	0.18680 0.83710 0.80710 -0.04600
C 	C 	0.13530 0.75890 0.86470 0.02300
C 	C 	0.01300 0.78410 0.94330 -0.15000
C 	C 	0.95940 0.69770 0.00630 0.41900
C 	C 	0.94370 0.88810 0.96230 0.03500
C 	C 	0.99500 0.96620 0.90300 -0.03900
C 	C 	0.50140 0.02830 0.80150 0.34600
C 	C 	0.50170 0.01470 0.90430 -0.09600
C 	C 	0.42300 0.09620 0.96140 -0.02600
C 	C 	0.57770 0.91850 0.94350 -0.00400
C 	C 	0.96660 0.47510 0.73670 0.37800
C 	C 	0.88440 0.55860 0.67440 -0.07700
C 	C 	0.83100 0.66290 0.69290 -0.04100
C 	C 	0.75890 0.74110 0.63530 0.01900
C 	C 	0.74040 0.71590 0.55670 -0.14700
C 	C 	0.66340 0.80230 0.49370 0.42300
C 	C 	0.79410 0.61190 0.53770 0.01900
C 	C 	0.86420 0.53380 0.59700 -0.04000
C 	C 	0.33120 0.47170 0.69850 0.34800
C 	C 	0.42070 0.48530 0.59570 -0.09100
C 	C 	0.48060 0.40380 0.53860 -0.01500
C 	C 	0.43970 0.58150 0.55650 -0.02100
O 	O 	0.71126 0.00599 0.30709 -0.48900
O 	O 	0.87973 0.88307 0.21387 -0.46500
O 	O 	0.13203 0.28499 0.91335 -0.59000
O 	O 	0.99317 0.39136 0.02490 -0.62400
O 	O 	0.57412 0.88491 0.23285 -0.57000
O 	O 	0.42305 0.04755 0.24755 -0.44200
O 	O 	0.02434 0.49401 0.19291 -0.49400
O 	O 	0.97667 0.61693 0.28613 -0.46700
O 	O 	0.33037 0.21501 0.58665 -0.59000
O 	O 	0.40943 0.10864 0.47510 -0.62600
O 	O 	0.69188 0.61509 0.26715 -0.57000
O 	O 	0.71815 0.45245 0.25245 -0.44600
O 	O 	0.28874 0.99401 0.69291 -0.48900
O 	O 	0.12027 0.11693 0.78613 -0.46500
O 	O 	0.86797 0.71501 0.08665 -0.59000
O 	O 	0.00683 0.60864 0.97510 -0.62400
O 	O 	0.42588 0.11509 0.76715 -0.57000
O 	O 	0.57695 0.95245 0.75245 -0.44200
O 	O 	0.97566 0.50599 0.80709 -0.49400
O 	O 	0.02333 0.38307 0.71387 -0.46700
O 	O 	0.66963 0.78499 0.41335 -0.59000
O 	O 	0.59057 0.89136 0.52490 -0.62600
O 	O 	0.30812 0.38491 0.73285 -0.57000
O 	O 	0.28185 0.54755 0.74755 -0.44600
