data_crystal

_cell_length_a 9.94100
_cell_length_b 13.62700
_cell_length_c 17.68600
_cell_angle_alpha 92.73200
_cell_angle_beta  90.00000
_cell_angle_gamma 90.00000

_symmetry_space_group_name_	'P 1'
_symmetry_space_group_name_H-M	'P 1'

loop_
_symmetry_equiv_pos_as_xyz
  x,y,z

loop_
_atom_site_label
_atom_site_type_symbol
_atom_site_fract_x
_atom_site_fract_y
_atom_site_fract_z
_atom_site_charge
Mg	Mg	0.06872 0.89584 0.96419 1.46700
Mg	Mg	0.92959 0.65760 0.97650 1.47200
Mg	Mg	0.56872 0.10416 0.53581 1.46800
Mg	Mg	0.42959 0.34240 0.52350 1.47200
Mg	Mg	0.93128 0.10416 0.03581 1.46600
Mg	Mg	0.07041 0.34240 0.02350 1.47100
Mg	Mg	0.43128 0.89584 0.46419 1.46700
Mg	Mg	0.57041 0.65760 0.47650 1.47100
H 	H 	0.80770 0.98050 0.78870 0.04500
H 	H 	0.69770 0.00240 0.67410 0.02400
H 	H 	0.62580 0.70920 0.65170 0.01500
H 	H 	0.72050 0.68920 0.77110 0.05200
H 	H 	0.28270 0.81240 0.75580 0.04500
H 	H 	0.37740 0.73900 0.64600 0.03000
H 	H 	0.28890 0.47110 0.72390 0.03800
H 	H 	0.19810 0.54400 0.83400 0.04000
H 	H 	0.30770 0.01950 0.71130 0.05200
H 	H 	0.19770 0.99760 0.82590 0.00800
H 	H 	0.12580 0.29080 0.84830 0.01300
H 	H 	0.22050 0.31080 0.72890 0.05400
H 	H 	0.78270 0.18760 0.74420 0.04600
H 	H 	0.87740 0.26100 0.85400 0.02900
H 	H 	0.78890 0.52890 0.77610 0.03800
H 	H 	0.69810 0.45600 0.66600 0.04000
H 	H 	0.19230 0.01950 0.21130 0.04500
H 	H 	0.30230 0.99760 0.32590 0.02400
H 	H 	0.37420 0.29080 0.34830 0.01500
H 	H 	0.27950 0.31080 0.22890 0.05200
H 	H 	0.71730 0.18760 0.24420 0.04500
H 	H 	0.62260 0.26100 0.35400 0.03000
H 	H 	0.71110 0.52890 0.27610 0.03800
H 	H 	0.80190 0.45600 0.16600 0.04000
H 	H 	0.69230 0.98050 0.28870 0.05200
H 	H 	0.80230 0.00240 0.17410 0.00800
H 	H 	0.87420 0.70920 0.15170 0.01300
H 	H 	0.77950 0.68920 0.27110 0.05400
H 	H 	0.21730 0.81240 0.25580 0.04600
H 	H 	0.12260 0.73900 0.14600 0.02900
H 	H 	0.21110 0.47110 0.22390 0.03800
H 	H 	0.30190 0.54400 0.33400 0.04000
C 	C 	0.84570 0.81860 0.86520 0.41800
C 	C 	0.77490 0.83280 0.79000 -0.08100
C 	C 	0.76860 0.92590 0.76140 -0.03300
C 	C 	0.70500 0.93850 0.69300 0.01500
C 	C 	0.65180 0.85810 0.65160 -0.14800
C 	C 	0.66020 0.76450 0.68030 0.01200
C 	C 	0.71870 0.75220 0.75030 -0.03400
C 	C 	0.58540 0.87230 0.57770 0.42800
C 	C 	0.17010 0.73490 0.87580 0.40300
C 	C 	0.23220 0.68600 0.80530 -0.08700
C 	C 	0.28500 0.74280 0.74930 -0.02200
C 	C 	0.34090 0.69960 0.68390 -0.00300
C 	C 	0.34270 0.59660 0.67470 -0.12000
C 	C 	0.28840 0.54060 0.73070 0.00300
C 	C 	0.23390 0.58350 0.79590 -0.02400
C 	C 	0.40270 0.54830 0.60310 0.46900
C 	C 	0.34570 0.18140 0.63480 0.41500
C 	C 	0.27490 0.16720 0.71000 -0.07300
C 	C 	0.26860 0.07410 0.73860 -0.04700
C 	C 	0.20500 0.06150 0.80700 0.04100
C 	C 	0.15180 0.14190 0.84840 -0.15800
C 	C 	0.16020 0.23550 0.81970 0.02100
C 	C 	0.21870 0.24780 0.74970 -0.04200
C 	C 	0.08540 0.12770 0.92230 0.43300
C 	C 	0.67010 0.26510 0.62420 0.40300
C 	C 	0.73220 0.31400 0.69470 -0.08700
C 	C 	0.78500 0.25720 0.75070 -0.02300
C 	C 	0.84090 0.30040 0.81610 -0.00200
C 	C 	0.84270 0.40340 0.82530 -0.12000
C 	C 	0.78840 0.45940 0.76930 0.00400
C 	C 	0.73390 0.41650 0.70410 -0.02500
C 	C 	0.90270 0.45170 0.89690 0.47000
C 	C 	0.15430 0.18140 0.13480 0.41800
C 	C 	0.22510 0.16720 0.21000 -0.08100
C 	C 	0.23140 0.07410 0.23860 -0.03300
C 	C 	0.29500 0.06150 0.30700 0.01500
C 	C 	0.34820 0.14190 0.34840 -0.14800
C 	C 	0.33980 0.23550 0.31970 0.01200
C 	C 	0.28130 0.24780 0.24970 -0.03400
C 	C 	0.41460 0.12770 0.42230 0.42800
C 	C 	0.82990 0.26510 0.12420 0.40300
C 	C 	0.76780 0.31400 0.19470 -0.08700
C 	C 	0.71500 0.25720 0.25070 -0.02200
C 	C 	0.65910 0.30040 0.31610 -0.00300
C 	C 	0.65730 0.40340 0.32530 -0.12000
C 	C 	0.71160 0.45940 0.26930 0.00300
C 	C 	0.76610 0.41650 0.20410 -0.02400
C 	C 	0.59730 0.45170 0.39690 0.46900
C 	C 	0.65430 0.81860 0.36520 0.41500
C 	C 	0.72510 0.83280 0.29000 -0.07300
C 	C 	0.73140 0.92590 0.26140 -0.04700
C 	C 	0.79500 0.93850 0.19300 0.04100
C 	C 	0.84820 0.85810 0.15160 -0.15800
C 	C 	0.83980 0.76450 0.18030 0.02100
C 	C 	0.78130 0.75220 0.25030 -0.04200
C 	C 	0.91460 0.87230 0.07770 0.43300
C 	C 	0.32990 0.73490 0.37580 0.40300
C 	C 	0.26780 0.68600 0.30530 -0.08700
C 	C 	0.21500 0.74280 0.24930 -0.02300
C 	C 	0.15910 0.69960 0.18390 -0.00200
C 	C 	0.15730 0.59660 0.17470 -0.12000
C 	C 	0.21160 0.54060 0.23070 0.00400
C 	C 	0.26610 0.58350 0.29590 -0.02500
C 	C 	0.09730 0.54830 0.10310 0.47000
O 	O 	0.91810 0.88840 0.88900 -0.52900
O 	O 	0.82620 0.73960 0.89720 -0.49800
O 	O 	0.58020 0.95830 0.55300 -0.64600
O 	O 	0.53180 0.80160 0.53970 -0.63100
O 	O 	0.18930 0.82630 0.88740 -0.52100
O 	O 	0.10360 0.68330 0.91920 -0.53100
O 	O 	0.37620 0.46020 0.59030 -0.52900
O 	O 	0.47790 0.60060 0.56410 -0.54900
O 	O 	0.41810 0.11160 0.61100 -0.52700
O 	O 	0.32620 0.26040 0.60280 -0.49600
O 	O 	0.08020 0.04170 0.94700 -0.64000
O 	O 	0.03180 0.19840 0.96030 -0.62700
O 	O 	0.68930 0.17370 0.61260 -0.51900
O 	O 	0.60360 0.31670 0.58080 -0.53000
O 	O 	0.87620 0.53980 0.90970 -0.52900
O 	O 	0.97790 0.39940 0.93590 -0.55000
O 	O 	0.08190 0.11160 0.11100 -0.52900
O 	O 	0.17380 0.26040 0.10280 -0.49800
O 	O 	0.41980 0.04170 0.44700 -0.64600
O 	O 	0.46820 0.19840 0.46030 -0.63100
O 	O 	0.81070 0.17370 0.11260 -0.52100
O 	O 	0.89640 0.31670 0.08080 -0.53100
O 	O 	0.62380 0.53980 0.40970 -0.52900
O 	O 	0.52210 0.39940 0.43590 -0.54900
O 	O 	0.58190 0.88840 0.38900 -0.52700
O 	O 	0.67380 0.73960 0.39720 -0.49600
O 	O 	0.91980 0.95830 0.05300 -0.64000
O 	O 	0.96820 0.80160 0.03970 -0.62700
O 	O 	0.31070 0.82630 0.38740 -0.51900
O 	O 	0.39640 0.68330 0.41920 -0.53000
O 	O 	0.12380 0.46020 0.09030 -0.52900
O 	O 	0.02210 0.60060 0.06410 -0.55000
