data_crystal

_cell_length_a 6.89700
_cell_length_b 12.18640
_cell_length_c 18.51600
_cell_angle_alpha 90.00000
_cell_angle_beta  90.00000
_cell_angle_gamma 90.00000

_symmetry_space_group_name_	'P 1'
_symmetry_space_group_name_H-M	'P 1'

loop_
_symmetry_equiv_pos_as_xyz
  x,y,z

loop_
_atom_site_label
_atom_site_type_symbol
_atom_site_fract_x
_atom_site_fract_y
_atom_site_fract_z
_atom_site_charge
Sr	Sr	0.25000 0.08464 0.51764 1.50900
Sr	Sr	0.75000 0.41536 0.01764 1.50900
Sr	Sr	0.75000 0.91536 0.48236 1.50800
Sr	Sr	0.25000 0.58464 0.98236 1.50800
H 	H 	0.95730 0.83790 0.32570 -0.04600
H 	H 	0.95810 0.75680 0.21190 0.05500
H 	H 	0.04270 0.66210 0.82570 -0.04500
H 	H 	0.04190 0.74320 0.71190 0.06000
H 	H 	0.45730 0.16210 0.67430 -0.04100
H 	H 	0.45810 0.24320 0.78810 0.06100
H 	H 	0.54270 0.33790 0.17430 -0.04200
H 	H 	0.54190 0.25680 0.28810 0.06200
H 	H 	0.04270 0.16210 0.67430 -0.04600
H 	H 	0.04190 0.24320 0.78810 0.05500
H 	H 	0.95730 0.33790 0.17430 -0.04500
H 	H 	0.95810 0.25680 0.28810 0.06000
H 	H 	0.54270 0.83790 0.32570 -0.04100
H 	H 	0.54190 0.75680 0.21190 0.06100
H 	H 	0.45730 0.66210 0.82570 -0.04200
H 	H 	0.45810 0.74320 0.71190 0.06200
C 	C 	0.07710 0.82120 0.30280 0.07600
C 	C 	0.07780 0.77310 0.23490 -0.09200
C 	C 	0.92290 0.67880 0.80280 0.07600
C 	C 	0.92220 0.72690 0.73490 -0.09900
C 	C 	0.57710 0.17880 0.69720 0.07100
C 	C 	0.57780 0.22690 0.76510 -0.09900
C 	C 	0.42290 0.32120 0.19720 0.07200
C 	C 	0.42220 0.27310 0.26510 -0.10100
C 	C 	0.92290 0.17880 0.69720 0.07600
C 	C 	0.92220 0.22690 0.76510 -0.09200
C 	C 	0.07710 0.32120 0.19720 0.07600
C 	C 	0.07780 0.27310 0.26510 -0.09900
C 	C 	0.42290 0.82120 0.30280 0.07100
C 	C 	0.42220 0.77310 0.23490 -0.09900
C 	C 	0.57710 0.67880 0.80280 0.07200
C 	C 	0.57780 0.72690 0.73490 -0.10100
C 	C 	0.25000 0.89920 0.41070 0.43900
C 	C 	0.25000 0.84510 0.33750 -0.20100
C 	C 	0.25000 0.69940 0.12560 0.29000
C 	C 	0.25000 0.74850 0.20000 -0.02300
C 	C 	0.75000 0.60080 0.91070 0.43900
C 	C 	0.75000 0.65490 0.83750 -0.20200
C 	C 	0.75000 0.80060 0.62560 0.28900
C 	C 	0.75000 0.75150 0.70000 -0.02100
C 	C 	0.75000 0.10080 0.58930 0.43900
C 	C 	0.75000 0.15490 0.66250 -0.20100
C 	C 	0.75000 0.30060 0.87440 0.29000
C 	C 	0.75000 0.25150 0.80000 -0.02300
C 	C 	0.25000 0.39920 0.08930 0.43900
C 	C 	0.25000 0.34510 0.16250 -0.20200
C 	C 	0.25000 0.19940 0.37440 0.28900
C 	C 	0.25000 0.24850 0.30000 -0.02100
O 	O 	0.09060 0.92340 0.43946 -0.59100
O 	O 	0.09040 0.68030 0.09550 -0.40500
O 	O 	0.90940 0.57660 0.93946 -0.59100
O 	O 	0.90960 0.81970 0.59550 -0.40800
O 	O 	0.59060 0.07660 0.56054 -0.59300
O 	O 	0.59040 0.31970 0.90450 -0.40700
O 	O 	0.40940 0.42340 0.06054 -0.59300
O 	O 	0.40960 0.18030 0.40450 -0.40700
O 	O 	0.90940 0.07660 0.56054 -0.59100
O 	O 	0.90960 0.31970 0.90450 -0.40500
O 	O 	0.09060 0.42340 0.06054 -0.59100
O 	O 	0.09040 0.18030 0.40450 -0.40800
O 	O 	0.40940 0.92340 0.43946 -0.59300
O 	O 	0.40960 0.68030 0.09550 -0.40700
O 	O 	0.59060 0.57660 0.93946 -0.59300
O 	O 	0.59040 0.81970 0.59550 -0.40700
