data_crystal

_cell_length_a 13.74100
_cell_length_b 13.97200
_cell_length_c 8.80450
_cell_angle_alpha 90.00000
_cell_angle_beta  113.76000
_cell_angle_gamma 90.00000

_symmetry_space_group_name_	'P 1'
_symmetry_space_group_name_H-M	'P 1'

loop_
_symmetry_equiv_pos_as_xyz
  x,y,z

loop_
_atom_site_label
_atom_site_type_symbol
_atom_site_fract_x
_atom_site_fract_y
_atom_site_fract_z
_atom_site_charge
O 	O 	0.09191 0.57699 0.11564 -0.62800
O 	O 	0.10206 0.52614 0.88489 -0.60700
O 	O 	0.18938 0.62701 0.73276 -0.47500
H 	H 	0.14720 0.58690 0.73790 0.26400
C 	C 	0.12089 0.58576 0.00100 0.53000
C 	C 	0.18695 0.67077 0.99850 -0.25600
C 	C 	0.22013 0.73456 0.13040 -0.04600
H 	H 	0.20020 0.72440 0.21820 0.02400
C 	C 	0.21766 0.68704 0.86640 0.25400
O 	O 	0.59191 0.07699 0.11564 -0.55300
O 	O 	0.60206 0.02614 0.88489 -0.53200
O 	O 	0.68938 0.12701 0.73276 -0.44100
H 	H 	0.64720 0.08690 0.73790 0.28200
C 	C 	0.62089 0.08576 0.00100 0.52300
C 	C 	0.68695 0.17077 0.99850 -0.21100
C 	C 	0.72013 0.23456 0.13040 -0.04700
H 	H 	0.70020 0.22440 0.21820 0.05600
C 	C 	0.71766 0.18704 0.86640 0.27100
O 	O 	0.90809 0.57699 0.38436 -0.47500
O 	O 	0.89794 0.52614 0.61511 -0.46200
O 	O 	0.81062 0.62701 0.76724 -0.43900
H 	H 	0.85280 0.58690 0.76210 0.30000
C 	C 	0.87911 0.58576 0.49900 0.50000
C 	C 	0.81305 0.67077 0.50150 -0.16500
C 	C 	0.77987 0.73456 0.36960 -0.08100
H 	H 	0.79980 0.72440 0.28180 0.08000
C 	C 	0.78234 0.68704 0.63360 0.25000
O 	O 	0.40809 0.07699 0.38436 -0.56100
O 	O 	0.39794 0.02614 0.61511 -0.54000
O 	O 	0.31062 0.12701 0.76724 -0.46900
H 	H 	0.35280 0.08690 0.76210 0.28200
C 	C 	0.37911 0.08576 0.49900 0.50000
C 	C 	0.31305 0.17077 0.50150 -0.20100
C 	C 	0.27987 0.23456 0.36960 -0.09000
H 	H 	0.29980 0.22440 0.28180 0.04900
C 	C 	0.28234 0.18704 0.63360 0.22900
O 	O 	0.90809 0.42301 0.88436 -0.47200
O 	O 	0.89794 0.47386 0.11511 -0.44800
O 	O 	0.81062 0.37299 0.26724 -0.43000
H 	H 	0.85280 0.41310 0.26210 0.29800
C 	C 	0.87911 0.41424 0.99900 0.47200
C 	C 	0.81305 0.32923 0.00150 -0.13500
C 	C 	0.77987 0.26544 0.86960 -0.10900
H 	H 	0.79980 0.27560 0.78180 0.08700
C 	C 	0.78234 0.31296 0.13360 0.23500
O 	O 	0.40809 0.92301 0.88436 -0.55500
O 	O 	0.39794 0.97386 0.11511 -0.52400
O 	O 	0.31062 0.87299 0.26724 -0.46000
H 	H 	0.35280 0.91310 0.26210 0.27800
C 	C 	0.37911 0.91424 0.99900 0.46500
C 	C 	0.31305 0.82923 0.00150 -0.15800
C 	C 	0.27987 0.76544 0.86960 -0.13100
H 	H 	0.29980 0.77560 0.78180 0.06100
C 	C 	0.28234 0.81296 0.13360 0.20400
O 	O 	0.09191 0.42301 0.61564 -0.62400
O 	O 	0.10206 0.47386 0.38489 -0.59500
O 	O 	0.18938 0.37299 0.23276 -0.46500
H 	H 	0.14720 0.41310 0.23790 0.26200
C 	C 	0.12089 0.41424 0.50100 0.50200
C 	C 	0.18695 0.32923 0.49850 -0.21900
C 	C 	0.22013 0.26544 0.63040 -0.08300
H 	H 	0.20020 0.27560 0.71820 0.03600
C 	C 	0.21766 0.31296 0.36640 0.23000
O 	O 	0.59191 0.92301 0.61564 -0.55200
O 	O 	0.60206 0.97386 0.38489 -0.52600
O 	O 	0.68938 0.87299 0.23276 -0.43300
H 	H 	0.64720 0.91310 0.23790 0.28100
C 	C 	0.62089 0.91424 0.50100 0.50900
C 	C 	0.68695 0.82923 0.49850 -0.18800
C 	C 	0.72013 0.76544 0.63040 -0.07000
H 	H 	0.70020 0.77560 0.71820 0.06200
C 	C 	0.71766 0.81296 0.36640 0.25600
Mg	Mg	-0.00000 0.57780 0.25000 1.44600
Mg	Mg	0.50000 0.07780 0.25000 1.46600
Mg	Mg	0.00000 0.42220 0.75000 1.44600
Mg	Mg	0.50000 0.92220 0.75000 1.46600
