data_crystal

_audit_creation_method 'AiiDA-DDEC plugin'

_cell_length_a         7.09040
_cell_length_b        15.25785
_cell_length_c        15.29421

_cell_angle_alpha     63.58181
_cell_angle_beta     81.10540
_cell_angle_gamma     99.13508

_symmetry_space_group_name_Hall 'P 1'
_symmetry_space_group_name_H-M  'P 1'

loop_
_symmetry_equiv_pos_as_xyz
 'x,y,z'

loop_
_atom_site_label
_atom_site_type_symbol
_atom_site_fract_x
_atom_site_fract_y
_atom_site_fract_z
_atom_site_charge
Mn         Mn      0.28058   0.26248   0.32221   1.05355
Mn         Mn      0.60571   0.32582   0.41041   1.04939
Mn         Mn      0.01675   0.41060   0.26202   1.05407
Mn         Mn      0.71560   0.74209   0.67558   1.05618
Mn         Mn      0.38667   0.67187   0.59360   1.05082
Mn         Mn      0.97623   0.59248   0.74293   1.05496
H          H       0.30494   0.46905   0.55612   0.13814
H          H       0.85769   0.56260   0.98062   0.13859
H          H       0.83574   0.97668   0.46731   0.13832
H          H       0.68507   0.52386   0.45574   0.13652
H          H       0.14071   0.44994   0.02166   0.13813
H          H       0.16200   0.02426   0.52389   0.13770
C          C       0.23754   0.39244   0.43674   0.62407
C          C       0.11001   0.44644   0.46937  -0.15267
C          C       0.93144   0.46184   0.43974   0.30072
C          C       0.16867   0.48145   0.53422  -0.20672
C          C       0.67385   0.44087   0.17171   0.62233
C          C       0.57797   0.47196   0.08657  -0.14738
C          C       0.37054   0.43846   0.09948   0.29818
C          C       0.70016   0.53800   0.98929  -0.20820
C          C       0.84466   0.17082   0.38713   0.62132
C          C       0.66378   0.08566   0.44256  -0.15460
C          C       0.46991   0.10024   0.45888   0.29985
C          C       0.68731   0.98690   0.47955  -0.20188
C          C       0.75493   0.60316   0.57189   0.62514
C          C       0.88100   0.54747   0.54150  -0.15290
C          C       0.05955   0.53219   0.57123   0.29915
C          C       0.82183   0.51193   0.47723  -0.20316
C          C       0.32483   0.56961   0.83104   0.62391
C          C       0.42054   0.54004   0.91596  -0.15493
C          C       0.62826   0.57281   0.90272   0.29956
C          C       0.29815   0.47444   0.01324  -0.20552
C          C       0.15198   0.83095   0.60715   0.61586
C          C       0.33361   0.91545   0.54868  -0.15032
C          C       0.52764   0.90076   0.53249   0.29676
C          C       0.31027   0.01421   0.51121  -0.20520
O          O       0.18447   0.35722   0.37884  -0.60350
O          O       0.39512   0.38188   0.46630  -0.54117
O          O       0.86281   0.43109   0.37721  -0.61264
O          O       0.56392   0.38173   0.26227  -0.60021
O          O       0.86056   0.47212   0.15410  -0.54135
O          O       0.23988   0.37412   0.19010  -0.61367
O          O       0.82526   0.26245   0.35139  -0.60210
O          O       0.01313   0.15204   0.37628  -0.54070
O          O       0.43248   0.19261   0.42729  -0.61384
O          O       0.80941   0.64096   0.62761  -0.60379
O          O       0.59778   0.61338   0.54204  -0.54085
O          O       0.12876   0.56431   0.63270  -0.61301
O          O       0.43452   0.62681   0.73995  -0.60000
O          O       0.13818   0.53805   0.84912  -0.54041
O          O       0.75905   0.63522   0.81181  -0.61317
O          O       0.17015   0.73911   0.64778  -0.59752
O          O       0.98364   0.85029   0.61641  -0.54008
O          O       0.56564   0.80841   0.56549  -0.61172

