data_crystal

_cell_length_a 6.72990
_cell_length_b 10.93750
_cell_length_c 18.58400
_cell_angle_alpha 90.00000
_cell_angle_beta  90.00000
_cell_angle_gamma 90.00000

_symmetry_space_group_name_	'P 1'
_symmetry_space_group_name_H-M	'P 1'

loop_
_symmetry_equiv_pos_as_xyz
  x,y,z

loop_
_atom_site_label
_atom_site_type_symbol
_atom_site_fract_x
_atom_site_fract_y
_atom_site_fract_z
_atom_site_charge
Ca	Ca	0.25000 0.59047 0.01348 1.49600
Ca	Ca	0.75000 0.90953 0.51348 1.49700
Ca	Ca	0.75000 0.40953 0.98652 1.49600
Ca	Ca	0.25000 0.09047 0.48652 1.49700
H 	H 	0.54370 0.74380 0.78220 0.07900
H 	H 	0.54630 0.81500 0.66590 -0.05300
H 	H 	0.45630 0.75620 0.28220 0.08000
H 	H 	0.45370 0.68500 0.16590 -0.05300
H 	H 	0.04370 0.25620 0.21780 0.07200
H 	H 	0.04630 0.18500 0.33410 -0.05800
H 	H 	0.95630 0.24380 0.71780 0.07800
H 	H 	0.95370 0.31500 0.83410 -0.05700
H 	H 	0.45630 0.25620 0.21780 0.07900
H 	H 	0.45370 0.18500 0.33410 -0.05300
H 	H 	0.54370 0.24380 0.71780 0.08000
H 	H 	0.54630 0.31500 0.83410 -0.05300
H 	H 	0.95630 0.74380 0.78220 0.07200
H 	H 	0.95370 0.81500 0.66590 -0.05800
H 	H 	0.04370 0.75620 0.28220 0.07800
H 	H 	0.04630 0.68500 0.16590 -0.05700
C 	C 	0.42400 0.75860 0.75870 -0.13800
C 	C 	0.42570 0.80230 0.68920 0.11300
C 	C 	0.57600 0.74140 0.25870 -0.14100
C 	C 	0.57430 0.69770 0.18920 0.11500
C 	C 	0.92400 0.24140 0.24130 -0.13100
C 	C 	0.92570 0.19770 0.31080 0.11800
C 	C 	0.07600 0.25860 0.74130 -0.14000
C 	C 	0.07430 0.30230 0.81080 0.12000
C 	C 	0.57600 0.24140 0.24130 -0.13800
C 	C 	0.57430 0.19770 0.31080 0.11300
C 	C 	0.42400 0.25860 0.74130 -0.14100
C 	C 	0.42570 0.30230 0.81080 0.11500
C 	C 	0.07600 0.75860 0.75870 -0.13100
C 	C 	0.07430 0.80230 0.68920 0.11800
C 	C 	0.92400 0.74140 0.25870 -0.14000
C 	C 	0.92570 0.69770 0.18920 0.12000
C 	C 	0.25000 0.69370 0.87140 0.28500
C 	C 	0.25000 0.73660 0.79370 0.01100
C 	C 	0.25000 0.82740 0.65360 -0.23600
C 	C 	0.25000 0.88310 0.58070 0.45900
C 	C 	0.75000 0.80630 0.37140 0.28300
C 	C 	0.75000 0.76340 0.29370 0.01500
C 	C 	0.75000 0.67260 0.15360 -0.23800
C 	C 	0.75000 0.61690 0.08070 0.45900
C 	C 	0.75000 0.30630 0.12860 0.28500
C 	C 	0.75000 0.26340 0.20630 0.01100
C 	C 	0.75000 0.17260 0.34640 -0.23600
C 	C 	0.75000 0.11690 0.41930 0.45900
C 	C 	0.25000 0.19370 0.62860 0.28300
C 	C 	0.25000 0.23660 0.70630 0.01500
C 	C 	0.25000 0.32740 0.84640 -0.23800
C 	C 	0.25000 0.38310 0.91930 0.45900
O 	O 	0.08810 0.67840 0.90293 -0.40600
O 	O 	0.08770 0.90980 0.55109 -0.60000
O 	O 	0.91190 0.82160 0.40293 -0.40900
O 	O 	0.91230 0.59020 0.05109 -0.60000
O 	O 	0.58810 0.32160 0.09707 -0.40900
O 	O 	0.58770 0.09020 0.44891 -0.60100
O 	O 	0.41190 0.17840 0.59707 -0.40900
O 	O 	0.41230 0.40980 0.94891 -0.60100
O 	O 	0.91190 0.32160 0.09707 -0.40600
O 	O 	0.91230 0.09020 0.44891 -0.60000
O 	O 	0.08810 0.17840 0.59707 -0.40900
O 	O 	0.08770 0.40980 0.94891 -0.60000
O 	O 	0.41190 0.67840 0.90293 -0.40900
O 	O 	0.41230 0.90980 0.55109 -0.60100
O 	O 	0.58810 0.82160 0.40293 -0.40900
O 	O 	0.58770 0.59020 0.05109 -0.60100
