data_crystal

_cell_length_a 10.30140
_cell_length_b 14.41760
_cell_length_c 17.50700
_cell_angle_alpha 90.00000
_cell_angle_beta  94.80900
_cell_angle_gamma 90.00000

_symmetry_space_group_name_	'P 1'
_symmetry_space_group_name_H-M	'P 1'

loop_
_symmetry_equiv_pos_as_xyz
  x,y,z

loop_
_atom_site_label
_atom_site_type_symbol
_atom_site_fract_x
_atom_site_fract_y
_atom_site_fract_z
_atom_site_charge
O 	O 	0.39960 0.03030 0.10969 -0.50700
Ca	Ca	0.38930 0.15562 0.02779 1.50200
Ca	Ca	0.53044 0.39147 0.05897 1.49700
S 	S 	0.27123 0.25660 0.80191 0.02700
S 	S 	0.30331 0.93693 0.24388 0.05400
O 	O 	0.40930 0.30046 0.95469 -0.59000
O 	O 	0.13040 0.15610 0.67923 -0.45200
O 	O 	0.42850 0.45080 0.93552 -0.63200
C 	C 	0.37860 0.88710 0.16990 -0.14900
C 	C 	0.30900 0.36370 0.83970 -0.15600
O 	O 	0.06500 0.27389 0.60474 -0.56600
C 	C 	0.18200 0.30490 0.72500 -0.10200
C 	C 	0.25470 0.43350 0.79380 0.00900
H 	H 	0.26520 0.49630 0.80490 0.01400
C 	C 	0.18210 0.39940 0.72880 -0.02700
H 	H 	0.13840 0.43720 0.69210 0.03600
O 	O 	0.22470 0.74440 0.39012 -0.50200
C 	C 	0.38600 0.37150 0.91430 0.42700
C 	C 	0.12070 0.24090 0.66590 0.35900
O 	O 	0.16120 0.89200 0.38117 -0.49200
C 	C 	0.42790 0.94640 0.10900 0.45600
C 	C 	0.28100 0.83040 0.28480 -0.11800
C 	C 	0.32860 0.76110 0.24270 -0.01900
H 	H 	0.32500 0.69880 0.25610 0.03500
C 	C 	0.38360 0.79320 0.17720 0.00900
H 	H 	0.41980 0.75430 0.14220 0.01200
O 	O 	0.49240 0.90680 0.06158 -0.53800
C 	C 	0.21620 0.82160 0.35770 0.41100
O 	O 	0.10040 0.53030 0.39031 -0.50100
Ca	Ca	0.11070 0.65562 0.47221 1.50400
Ca	Ca	0.96956 0.89147 0.44103 1.49700
S 	S 	0.22877 0.75660 0.69809 0.02900
S 	S 	0.19669 0.43693 0.25612 0.05200
O 	O 	0.09070 0.80046 0.54531 -0.58900
O 	O 	0.36960 0.65610 0.82077 -0.45000
O 	O 	0.07150 0.95080 0.56448 -0.63100
C 	C 	0.12140 0.38710 0.33010 -0.14800
C 	C 	0.19100 0.86370 0.66030 -0.15600
O 	O 	0.43500 0.77389 0.89526 -0.56500
C 	C 	0.31800 0.80490 0.77500 -0.10200
C 	C 	0.24530 0.93350 0.70620 0.00900
H 	H 	0.23480 0.99630 0.69510 0.01400
C 	C 	0.31790 0.89940 0.77120 -0.02700
H 	H 	0.36160 0.93720 0.80790 0.03500
O 	O 	0.27530 0.24440 0.10988 -0.50300
C 	C 	0.11400 0.87150 0.58570 0.42700
C 	C 	0.37930 0.74090 0.83410 0.35900
O 	O 	0.33880 0.39200 0.11883 -0.49300
C 	C 	0.07210 0.44640 0.39100 0.45100
C 	C 	0.21900 0.33040 0.21520 -0.11800
C 	C 	0.17140 0.26110 0.25730 -0.01900
H 	H 	0.17500 0.19880 0.24390 0.03400
C 	C 	0.11640 0.29320 0.32280 0.00700
H 	H 	0.08020 0.25430 0.35780 0.01100
O 	O 	0.00760 0.40680 0.43842 -0.53900
C 	C 	0.28380 0.32160 0.14230 0.41100
O 	O 	0.60040 0.96970 0.89031 -0.50600
Ca	Ca	0.61070 0.84438 0.97221 1.50300
Ca	Ca	0.46956 0.60853 0.94103 1.49800
S 	S 	0.72877 0.74340 0.19809 0.02800
S 	S 	0.69669 0.06307 0.75612 0.05500
O 	O 	0.59070 0.69954 0.04531 -0.58900
O 	O 	0.86960 0.84390 0.32077 -0.45200
O 	O 	0.57150 0.54920 0.06448 -0.63200
C 	C 	0.62140 0.11290 0.83010 -0.14900
C 	C 	0.69100 0.63630 0.16030 -0.15600
O 	O 	0.93500 0.72611 0.39526 -0.56600
C 	C 	0.81800 0.69510 0.27500 -0.10200
C 	C 	0.74530 0.56650 0.20620 0.00900
H 	H 	0.73480 0.50370 0.19510 0.01400
C 	C 	0.81790 0.60060 0.27120 -0.02700
H 	H 	0.86160 0.56280 0.30790 0.03600
O 	O 	0.77530 0.25560 0.60988 -0.50200
C 	C 	0.61400 0.62850 0.08570 0.42700
C 	C 	0.87930 0.75910 0.33410 0.35900
O 	O 	0.83880 0.10800 0.61883 -0.49200
C 	C 	0.57210 0.05360 0.89100 0.45600
C 	C 	0.71900 0.16960 0.71520 -0.11800
C 	C 	0.67140 0.23890 0.75730 -0.01900
H 	H 	0.67500 0.30120 0.74390 0.03500
C 	C 	0.61640 0.20680 0.82280 0.00900
H 	H 	0.58020 0.24570 0.85780 0.01200
O 	O 	0.50760 0.09320 0.93842 -0.53800
C 	C 	0.78380 0.17840 0.64230 0.41100
O 	O 	0.89960 0.46970 0.60969 -0.50100
Ca	Ca	0.88930 0.34438 0.52779 1.50400
Ca	Ca	0.03044 0.10853 0.55897 1.49700
S 	S 	0.77123 0.24340 0.30191 0.02900
S 	S 	0.80331 0.56307 0.74388 0.05200
O 	O 	0.90930 0.19954 0.45469 -0.58900
O 	O 	0.63040 0.34390 0.17923 -0.45000
O 	O 	0.92850 0.04920 0.43552 -0.63100
C 	C 	0.87860 0.61290 0.66990 -0.14800
C 	C 	0.80900 0.13630 0.33970 -0.15600
O 	O 	0.56500 0.22611 0.10474 -0.56500
C 	C 	0.68200 0.19510 0.22500 -0.10200
C 	C 	0.75470 0.06650 0.29380 0.00900
H 	H 	0.76520 0.00370 0.30490 0.01400
C 	C 	0.68210 0.10060 0.22880 -0.02700
H 	H 	0.63840 0.06280 0.19210 0.03500
O 	O 	0.72470 0.75560 0.89012 -0.50300
C 	C 	0.88600 0.12850 0.41430 0.42700
C 	C 	0.62070 0.25910 0.16590 0.35900
O 	O 	0.66120 0.60800 0.88117 -0.49300
C 	C 	0.92790 0.55360 0.60900 0.45100
C 	C 	0.78100 0.66960 0.78480 -0.11800
C 	C 	0.82860 0.73890 0.74270 -0.01900
H 	H 	0.82500 0.80120 0.75610 0.03400
C 	C 	0.88360 0.70680 0.67720 0.00700
H 	H 	0.91980 0.74570 0.64220 0.01100
O 	O 	0.99240 0.59320 0.56158 -0.53900
C 	C 	0.71620 0.67840 0.85770 0.41100
