data_crystal

_cell_length_a 7.77900
_cell_length_b 14.85500
_cell_length_c 15.33900
_cell_angle_alpha 90.00000
_cell_angle_beta  90.00000
_cell_angle_gamma 98.63100

_symmetry_space_group_name_	'P 1'
_symmetry_space_group_name_H-M	'P 1'

loop_
_symmetry_equiv_pos_as_xyz
  x,y,z

loop_
_atom_site_label
_atom_site_type_symbol
_atom_site_fract_x
_atom_site_fract_y
_atom_site_fract_z
_atom_site_charge
Ca	Ca	0.54889 0.22053 0.71929 1.49200
Ca	Ca	0.95111 0.77947 0.21929 1.49100
Ca	Ca	0.45111 0.77947 0.28071 1.49300
Ca	Ca	0.04889 0.22053 0.78071 1.49200
H 	H 	0.77250 0.04290 0.94670 0.11600
H 	H 	0.76170 0.13900 0.98590 0.11000
H 	H 	0.53870 0.91220 0.98250 0.01600
H 	H 	0.40890 0.95960 0.92720 0.01800
H 	H 	0.30040 0.37890 0.95830 0.11200
H 	H 	0.46170 0.34290 0.99890 0.12500
H 	H 	0.48640 0.51110 0.90870 0.01600
H 	H 	0.64380 0.47550 0.95400 0.02200
H 	H 	0.72750 0.95710 0.44670 0.11200
H 	H 	0.73830 0.86100 0.48590 0.10700
H 	H 	0.96130 0.08780 0.48250 0.02100
H 	H 	0.09110 0.04040 0.42720 0.01900
H 	H 	0.19960 0.62110 0.45830 0.11300
H 	H 	0.03830 0.65710 0.49890 0.12600
H 	H 	0.01360 0.48890 0.40870 0.01700
H 	H 	0.85620 0.52450 0.45400 0.02200
H 	H 	0.22750 0.95710 0.05330 0.11600
H 	H 	0.23830 0.86100 0.01410 0.11000
H 	H 	0.46130 0.08780 0.01750 0.01600
H 	H 	0.59110 0.04040 0.07280 0.01800
H 	H 	0.69960 0.62110 0.04170 0.11200
H 	H 	0.53830 0.65710 0.00110 0.12500
H 	H 	0.51360 0.48890 0.09130 0.01600
H 	H 	0.35620 0.52450 0.04600 0.02200
H 	H 	0.27250 0.04290 0.55330 0.11200
H 	H 	0.26170 0.13900 0.51410 0.10700
H 	H 	0.03870 0.91220 0.51750 0.02100
H 	H 	0.90890 0.95960 0.57280 0.01900
H 	H 	0.80040 0.37890 0.54170 0.11300
H 	H 	0.96170 0.34290 0.50110 0.12600
H 	H 	0.98640 0.51110 0.59130 0.01700
H 	H 	0.14380 0.47550 0.54600 0.02200
C 	C 	0.64660 0.12021 0.86813 0.43900
C 	C 	0.69570 0.08792 0.95540 -0.38900
C 	C 	0.54600 0.04619 0.01448 0.00600
C 	C 	0.45410 0.33156 0.86628 0.44200
C 	C 	0.42410 0.37821 0.95130 -0.38100
C 	C 	0.51960 0.47632 0.95780 -0.00600
C 	C 	0.85340 0.87979 0.36813 0.43200
C 	C 	0.80430 0.91208 0.45540 -0.38400
C 	C 	0.95400 0.95381 0.51448 0.00000
C 	C 	0.04590 0.66844 0.36628 0.44600
C 	C 	0.07590 0.62179 0.45130 -0.38300
C 	C 	0.98040 0.52368 0.45780 -0.00700
C 	C 	0.35340 0.87979 0.13187 0.43900
C 	C 	0.30430 0.91208 0.04460 -0.38900
C 	C 	0.45400 0.95381 0.98552 0.00600
C 	C 	0.54590 0.66844 0.13372 0.44200
C 	C 	0.57590 0.62179 0.04870 -0.38100
C 	C 	0.48040 0.52368 0.04220 -0.00600
C 	C 	0.14660 0.12021 0.63187 0.43200
C 	C 	0.19570 0.08792 0.54460 -0.38400
C 	C 	0.04600 0.04619 0.48552 0.00000
C 	C 	0.95410 0.33156 0.63372 0.44600
C 	C 	0.92410 0.37821 0.54870 -0.38300
C 	C 	0.01960 0.47632 0.54220 -0.00700
O 	O 	0.76640 0.15002 0.81530 -0.61700
O 	O 	0.48930 0.11907 0.84772 -0.46100
O 	O 	0.60910 0.33040 0.84180 -0.46000
O 	O 	0.32740 0.29559 0.82138 -0.59900
O 	O 	0.73360 0.84998 0.31530 -0.61700
O 	O 	0.01070 0.88093 0.34772 -0.45500
O 	O 	0.89090 0.66960 0.34180 -0.46300
O 	O 	0.17260 0.70441 0.32138 -0.59900
O 	O 	0.23360 0.84998 0.18470 -0.61700
O 	O 	0.51070 0.88093 0.15228 -0.46100
O 	O 	0.39090 0.66960 0.15820 -0.46000
O 	O 	0.67260 0.70441 0.17862 -0.59900
O 	O 	0.26640 0.15002 0.68470 -0.61700
O 	O 	0.98930 0.11907 0.65228 -0.45500
O 	O 	0.10910 0.33040 0.65820 -0.46300
O 	O 	0.82740 0.29559 0.67862 -0.59900
