data_crystal

_cell_length_a 10.11200
_cell_length_b 13.75280
_cell_length_c 15.04340
_cell_angle_alpha 77.55800
_cell_angle_beta  70.36080
_cell_angle_gamma 68.43010

_symmetry_space_group_name_	'P 1'
_symmetry_space_group_name_H-M	'P 1'

loop_
_symmetry_equiv_pos_as_xyz
  x,y,z

loop_
_atom_site_label
_atom_site_type_symbol
_atom_site_fract_x
_atom_site_fract_y
_atom_site_fract_z
_atom_site_charge
Ca	Ca	0.49077 0.52717 0.11977 1.49700
Ca	Ca	0.50923 0.47283 0.88023 1.49700
Ca	Ca	0.13771 0.97283 0.38023 1.49700
Ca	Ca	0.21517 0.75000 0.25000 1.51100
Ca	Ca	0.86229 0.02717 0.61977 1.49800
Ca	Ca	0.78483 0.25000 0.75000 1.51200
H 	H 	0.58430 0.35410 0.41930 0.04100
H 	H 	0.50390 0.83420 0.07600 0.02000
H 	H 	0.82750 0.17170 0.24870 0.04700
H 	H 	0.41570 0.64590 0.58070 0.04100
H 	H 	0.24790 0.32830 0.25130 0.05000
H 	H 	0.83870 0.80390 0.65510 -0.00700
H 	H 	0.22780 0.90490 0.01810 0.01600
H 	H 	0.15080 0.59510 0.48190 0.02000
H 	H 	0.17250 0.82830 0.75130 0.04700
H 	H 	0.64230 0.85410 0.91930 0.03800
H 	H 	0.35770 0.14590 0.08070 0.03800
H 	H 	0.75210 0.67170 0.74870 0.05000
H 	H 	0.11400 0.03830 0.91890 0.05600
H 	H 	0.92880 0.53830 0.41890 0.05800
H 	H 	0.77220 0.09510 0.98190 0.01600
H 	H 	0.88600 0.96170 0.08110 0.05600
H 	H 	0.58590 0.33420 0.57600 0.01800
H 	H 	0.70230 0.30390 0.15510 -0.00500
H 	H 	0.49610 0.16580 0.92400 0.02000
H 	H 	0.29770 0.69610 0.84490 -0.00500
H 	H 	0.07120 0.46170 0.58110 0.05800
H 	H 	0.84920 0.40490 0.51810 0.02000
H 	H 	0.41410 0.66580 0.42400 0.01800
H 	H 	0.16130 0.19610 0.34490 -0.00700
C 	C 	0.07161 0.61069 0.53629 0.03300
C 	C 	0.09838 0.44704 0.32540 -0.07300
C 	C 	0.87082 0.05296 0.17460 -0.07800
C 	C 	0.65355 0.30082 0.99448 0.42400
C 	C 	0.81510 0.15584 0.19556 -0.04900
C 	C 	0.97766 0.46907 0.40481 -0.05100
C 	C 	0.92839 0.38931 0.46371 0.03300
C 	C 	0.02234 0.53093 0.59519 -0.05100
C 	C 	0.44975 0.58692 0.54838 -0.02300
C 	C 	0.32529 0.97655 0.19467 0.33700
C 	C 	0.04505 0.03225 0.76425 0.39400
C 	C 	0.85154 0.03093 0.09519 -0.04500
C 	C 	0.50349 0.47655 0.69467 0.34100
C 	C 	0.83350 0.65584 0.69556 -0.05400
C 	C 	0.05115 0.80082 0.49448 0.42900
C 	C 	0.58505 0.91308 0.95162 -0.00800
C 	C 	0.49651 0.52345 0.30533 0.34100
C 	C 	0.94885 0.19918 0.50552 0.42900
C 	C 	0.16650 0.34416 0.30444 -0.05400
C 	C 	0.18490 0.84416 0.80444 -0.04900
C 	C 	0.99666 0.28672 0.44176 -0.16400
C 	C 	0.84155 0.46775 0.73575 0.38800
C 	C 	0.15845 0.53225 0.26425 0.38800
C 	C 	0.34645 0.69918 0.00552 0.42400
C 	C 	0.11563 0.26479 0.36095 0.03700
C 	C 	0.12918 0.94704 0.82540 -0.07800
C 	C 	0.95495 0.96775 0.23575 0.39400
C 	C 	0.67471 0.02345 0.80533 0.33700
C 	C 	0.50196 0.90111 0.04577 -0.02300
C 	C 	0.41495 0.08692 0.04838 -0.00800
C 	C 	0.21859 0.88931 0.96371 0.03600
C 	C 	0.25863 0.76479 0.86095 0.03000
C 	C 	0.49804 0.09889 0.95423 -0.02300
C 	C 	0.00334 0.71328 0.55824 -0.16400
C 	C 	0.55116 0.40111 0.54577 -0.01400
C 	C 	0.44884 0.59889 0.45423 -0.01400
C 	C 	0.58300 0.01221 0.90599 -0.09400
C 	C 	0.88437 0.73521 0.63905 0.03700
C 	C 	0.72514 0.21328 0.05824 -0.15800
C 	C 	0.41700 0.98779 0.09401 -0.09400
C 	C 	0.90162 0.55296 0.67460 -0.07300
C 	C 	0.74137 0.23521 0.13905 0.03000
C 	C 	0.49880 0.51221 0.40599 -0.08900
C 	C 	0.14846 0.96907 0.90481 -0.04500
C 	C 	0.78141 0.11069 0.03629 0.03600
C 	C 	0.50120 0.48779 0.59401 -0.08900
C 	C 	0.27486 0.78672 0.94176 -0.15800
C 	C 	0.55025 0.41308 0.45162 -0.02300
O 	O 	0.43883 0.55639 0.73975 -0.44200
O 	O 	0.42976 0.61288 0.26782 -0.56500
O 	O 	0.73497 0.94361 0.76025 -0.43600
O 	O 	0.56117 0.44361 0.26025 -0.44200
O 	O 	0.26503 0.05639 0.23975 -0.43600
O 	O 	0.58349 0.39025 0.02437 -0.62900
O 	O 	0.89905 0.37768 0.70962 -0.46800
O 	O 	0.96250 0.99382 0.30838 -0.50600
O 	O 	0.73530 0.49382 0.80838 -0.50600
O 	O 	0.41651 0.60975 0.97563 -0.62900
O 	O 	0.86101 0.21427 0.58749 -0.58200
O 	O 	0.33723 0.71427 0.08749 -0.58100
O 	O 	0.00189 0.89025 0.52437 -0.63300
O 	O 	0.03750 0.00618 0.69162 -0.50600
O 	O 	0.26470 0.50618 0.19162 -0.50600
O 	O 	0.10095 0.62232 0.29038 -0.46800
O 	O 	0.31046 0.88712 0.23218 -0.56400
O 	O 	0.13899 0.78573 0.41251 -0.58200
O 	O 	0.99811 0.10975 0.47563 -0.63300
O 	O 	0.66277 0.28573 0.91251 -0.58100
O 	O 	0.68954 0.11288 0.76782 -0.56400
O 	O 	0.98635 0.12232 0.79038 -0.47200
O 	O 	0.57024 0.38712 0.73218 -0.56500
O 	O 	0.01365 0.87768 0.20962 -0.47200
