data_crystal

_cell_length_a 8.86900
_cell_length_b 12.08310
_cell_length_c 19.61290
_cell_angle_alpha 85.24020
_cell_angle_beta  76.93260
_cell_angle_gamma 68.46980

_symmetry_space_group_name_	'P 1'
_symmetry_space_group_name_H-M	'P 1'

loop_
_symmetry_equiv_pos_as_xyz
  x,y,z

loop_
_atom_site_label
_atom_site_type_symbol
_atom_site_fract_x
_atom_site_fract_y
_atom_site_fract_z
_atom_site_charge
Mg	Mg	0.60808 0.52860 0.91222 1.47000
Mg	Mg	0.86181 0.65654 0.97538 1.47900
Mg	Mg	0.04890 0.47140 0.08778 1.46200
Mg	Mg	0.49373 0.34346 0.02462 1.47400
Mg	Mg	0.77030 0.02860 0.58778 1.46700
Mg	Mg	0.08719 0.15654 0.52462 1.46900
Mg	Mg	0.38668 0.97140 0.41222 1.46900
Mg	Mg	0.76835 0.84346 0.47538 1.47500
H 	H 	0.90470 0.75680 0.73800 0.01100
H 	H 	0.73980 0.41120 0.09140 -0.18200
H 	H 	0.96080 0.41820 0.78480 0.02200
H 	H 	0.94360 0.53540 0.58940 0.02700
H 	H 	0.17130 0.82780 0.97420 -0.02700
H 	H 	0.98360 0.38140 0.66860 0.12500
H 	H 	0.39950 0.24320 0.26200 0.00200
H 	H 	0.24240 0.58880 0.90860 -0.22300
H 	H 	0.16380 0.58180 0.21520 -0.01500
H 	H 	0.06840 0.46460 0.41060 -0.01700
H 	H 	0.97330 0.17220 0.02580 0.11200
H 	H 	0.03360 0.61860 0.33140 0.07800
H 	H 	0.89270 0.25680 0.76200 0.05700
H 	H 	0.08120 0.91120 0.40860 -0.17200
H 	H 	0.99560 0.91820 0.71520 0.07400
H 	H 	0.78300 0.03540 0.91060 0.04500
H 	H 	0.39550 0.32780 0.52580 0.01900
H 	H 	0.90220 0.88140 0.83140 0.07100
H 	H 	0.91150 0.74320 0.23800 0.03800
H 	H 	0.40100 0.08880 0.59140 -0.20500
H 	H 	0.62900 0.08180 0.28480 0.02300
H 	H 	0.72900 0.96460 0.08940 0.01300
H 	H 	0.24910 0.67220 0.47420 0.00600
H 	H 	0.61500 0.11860 0.16860 0.10500
H 	H 	0.94100 0.00000 -0.00000 0.19000
H 	H 	0.46950 0.00000 -0.00000 0.02500
H 	H 	0.19100 0.50000 0.50000 0.06900
H 	H 	0.71950 0.50000 0.50000 0.04200
C 	C 	0.90840 0.61438 0.84842 0.36200
C 	C 	0.34496 0.89522 0.98406 -0.17600
C 	C 	0.89500 0.76122 0.60318 0.45600
C 	C 	0.92232 0.66064 0.65532 -0.17300
C 	C 	0.49219 0.78218 0.96844 0.43400
C 	C 	0.91687 0.68146 0.72440 0.11000
C 	C 	0.73133 0.46476 0.05438 0.61600
C 	C 	0.95230 0.47974 0.75226 0.08800
C 	C 	0.92925 0.59090 0.77360 -0.17500
C 	C 	0.94301 0.54924 0.63534 0.10900
C 	C 	0.18429 0.89708 0.98454 0.14600
C 	C 	0.96291 0.45798 0.68300 -0.16700
C 	C 	0.37120 0.38562 0.15158 0.36600
C 	C 	0.22424 0.10478 0.01594 -0.14100
C 	C 	0.25940 0.23878 0.39682 0.45900
C 	C 	0.23828 0.33936 0.34468 -0.20300
C 	C 	0.24281 0.21782 0.03156 0.41800
C 	C 	0.32273 0.31854 0.27560 0.11900
C 	C 	0.25047 0.53524 0.94562 0.63700
C 	C 	0.18430 0.52026 0.24774 0.08900
C 	C 	0.29375 0.40910 0.22640 -0.20200
C 	C 	0.12759 0.45076 0.36466 0.11200
C 	C 	0.06591 0.10292 0.01546 -0.02400
C 	C 	0.10389 0.54202 0.31700 -0.19500
C 	C 	0.00682 0.11438 0.65158 0.14100
C 	C 	0.57902 0.39522 0.51594 -0.14500
C 	C 	0.74818 0.26122 0.89682 0.43000
C 	C 	0.82764 0.16064 0.84468 -0.10100
C 	C 	0.71063 0.28218 0.53156 0.42400
C 	C 	0.89127 0.18146 0.77560 -0.00200
C 	C 	0.03571 0.96476 0.44562 0.46700
C 	C 	0.95456 0.97974 0.74774 -0.04000
C 	C 	0.95285 0.09090 0.72640 -0.00300
C 	C 	0.82835 0.04924 0.86466 0.00600
C 	C 	0.41883 0.39708 0.51546 0.06300
C 	C 	0.89591 0.95798 0.81700 -0.04600
C 	C 	0.77278 0.88562 0.34842 0.35400
C 	C 	0.49018 0.60478 0.48406 -0.15100
C 	C 	0.90622 0.73878 0.10318 0.44900
C 	C 	0.83296 0.83936 0.15532 -0.15900
C 	C 	0.52437 0.71782 0.46844 0.42600
C 	C 	0.84833 0.81854 0.22440 0.09200
C 	C 	0.44609 0.03524 0.55438 0.61700
C 	C 	0.68204 0.02026 0.25226 0.06300
C 	C 	0.77015 0.90910 0.27360 -0.15100
C 	C 	0.74225 0.95076 0.13534 0.10600
C 	C 	0.33137 0.60292 0.48454 0.06400
C 	C 	0.67089 0.04202 0.18300 -0.16400
C 	C 	0.04590 0.00000 -0.00000 -0.29200
C 	C 	0.36470 0.00000 -0.00000 0.07300
C 	C 	0.29590 0.50000 0.50000 -0.13500
C 	C 	0.61470 0.50000 0.50000 0.07500
O 	O 	0.63245 0.46486 0.01644 -0.65700
O 	O 	0.90071 0.73726 0.54152 -0.49300
O 	O 	0.83103 0.56114 0.89400 -0.60200
O 	O 	0.96376 0.68688 0.86860 -0.40000
O 	O 	0.81879 0.52790 0.04812 -0.67100
O 	O 	0.85998 0.86384 0.62640 -0.53200
O 	O 	0.46757 0.69642 0.94624 -0.53600
O 	O 	0.63134 0.77924 0.97868 -0.50000
O 	O 	0.11375 0.53514 0.98356 -0.70900
O 	O 	0.17949 0.26274 0.45848 -0.54200
O 	O 	0.28617 0.43886 0.10600 -0.63200
O 	O 	0.51924 0.31312 0.13140 -0.43000
O 	O 	0.39481 0.47210 0.95188 -0.70700
O 	O 	0.35022 0.13616 0.37360 -0.54500
O 	O 	0.11023 0.30358 0.05376 -0.56600
O 	O 	0.38926 0.22076 0.02132 -0.50500
O 	O 	0.89889 0.96486 0.48356 -0.56600
O 	O 	0.69223 0.23726 0.95848 -0.50400
O 	O 	0.97503 0.06114 0.60600 -0.50400
O 	O 	0.08236 0.18688 0.63140 -0.42500
O 	O 	0.11691 0.02790 0.45188 -0.68800
O 	O 	0.73638 0.36384 0.87360 -0.52800
O 	O 	0.66381 0.19642 0.55376 -0.52800
O 	O 	0.86002 0.27924 0.52132 -0.46300
O 	O 	0.34731 0.03514 0.51644 -0.67200
O 	O 	0.88797 0.76274 0.04152 -0.49000
O 	O 	0.64217 0.93886 0.39400 -0.60600
O 	O 	0.90064 0.81312 0.36860 -0.38900
O 	O 	0.59669 0.97210 0.54812 -0.69800
O 	O 	0.97382 0.63616 0.12640 -0.48900
O 	O 	0.41399 0.80358 0.44624 -0.53400
O 	O 	0.66058 0.72076 0.47868 -0.49300
