data_crystal

_cell_length_a 11.44820
_cell_length_b 11.54080
_cell_length_c 11.76630
_cell_angle_alpha 65.37000
_cell_angle_beta  80.54000
_cell_angle_gamma 72.75900

_symmetry_space_group_name_	'P 1'
_symmetry_space_group_name_H-M	'P 1'

loop_
_symmetry_equiv_pos_as_xyz
  x,y,z

loop_
_atom_site_label
_atom_site_type_symbol
_atom_site_fract_x
_atom_site_fract_y
_atom_site_fract_z
_atom_site_charge
Co	Co	0.50000 0.00000 0.50000 1.11900
Co	Co	0.50000 0.50000 -0.00000 1.12600
Co	Co	0.50000 0.50000 0.50000 1.18300
H 	H 	0.54500 0.16180 0.17790 -0.03100
H 	H 	0.70160 0.87430 0.70390 0.00100
H 	H 	0.90960 0.77990 0.72010 0.09300
H 	H 	0.94570 0.94180 0.34130 0.11800
H 	H 	0.73690 0.03000 0.33770 -0.10100
H 	H 	0.07670 0.61860 0.70380 0.06800
H 	H 	0.27830 0.50320 0.69300 0.01800
H 	H 	0.33970 0.77700 0.36920 0.02700
H 	H 	0.14100 0.90310 0.37100 0.07500
H 	H 	0.65760 0.68460 0.97760 0.02100
H 	H 	0.85690 0.69190 0.97420 0.04200
H 	H 	0.96190 0.30610 0.03770 0.02400
H 	H 	0.75880 0.30860 0.04330 0.00200
H 	H 	0.45500 0.83820 0.82210 0.00600
H 	H 	0.29840 0.12570 0.29610 -0.00700
H 	H 	0.09040 0.22010 0.27990 0.04900
H 	H 	0.05430 0.05820 0.65870 0.02700
H 	H 	0.26310 0.97000 0.66230 0.09700
H 	H 	0.92330 0.38140 0.29620 0.08000
H 	H 	0.72170 0.49680 0.30700 0.00400
H 	H 	0.66030 0.22300 0.63080 0.01300
H 	H 	0.85900 0.09690 0.62900 0.06700
H 	H 	0.34240 0.31540 0.02240 -0.02000
H 	H 	0.14310 0.30810 0.02580 0.09900
H 	H 	0.03810 0.69390 0.96230 0.11100
H 	H 	0.24120 0.69140 0.95670 -0.00400
C 	C 	0.52420 0.21640 0.22410 0.11600
C 	C 	0.47780 0.27870 0.37810 -0.05500
C 	C 	0.48100 0.38780 0.26840 -0.06000
C 	C 	0.44700 0.25660 0.51160 0.31600
C 	C 	0.46150 0.53160 0.23460 0.32800
C 	C 	0.75190 0.88590 0.62920 0.10600
C 	C 	0.87620 0.82880 0.63990 -0.15700
C 	C 	0.95210 0.84380 0.53180 0.11900
C 	C 	0.89730 0.92380 0.41750 -0.20500
C 	C 	0.77260 0.97640 0.41630 0.23200
C 	C 	0.08380 0.77410 0.53530 0.01700
C 	C 	0.12860 0.65300 0.63320 -0.09700
C 	C 	0.24900 0.58450 0.62560 0.06500
C 	C 	0.28500 0.74410 0.43740 0.05800
C 	C 	0.16610 0.81990 0.43760 -0.09000
C 	C 	0.72070 0.60610 0.98960 0.07900
C 	C 	0.83990 0.61160 0.98670 0.01100
C 	C 	0.93440 0.50000 0.00220 -0.13300
C 	C 	0.90070 0.38630 0.02430 -0.03500
C 	C 	0.77920 0.38830 0.02710 0.01200
C 	C 	0.47580 0.78360 0.77590 0.11700
C 	C 	0.52220 0.72130 0.62190 -0.04700
C 	C 	0.51900 0.61220 0.73160 -0.05200
C 	C 	0.55300 0.74340 0.48840 0.31100
C 	C 	0.53850 0.46840 0.76540 0.32600
C 	C 	0.24810 0.11410 0.37080 0.04400
C 	C 	0.12380 0.17120 0.36010 -0.09600
C 	C 	0.04790 0.15620 0.46820 -0.01100
C 	C 	0.10270 0.07620 0.58250 -0.03700
C 	C 	0.22740 0.02360 0.58370 -0.08000
C 	C 	0.91620 0.22590 0.46470 0.07800
C 	C 	0.87140 0.34700 0.36680 -0.13700
C 	C 	0.75100 0.41550 0.37440 0.08200
C 	C 	0.71500 0.25590 0.56260 0.06900
C 	C 	0.83390 0.18010 0.56240 -0.13400
C 	C 	0.27930 0.39390 0.01040 0.07900
C 	C 	0.16010 0.38840 0.01330 -0.26600
C 	C 	0.06560 0.50000 0.99780 0.23100
C 	C 	0.09930 0.61370 0.97570 -0.21000
C 	C 	0.22080 0.61170 0.97290 0.13100
N 	N 	0.50580 0.17070 0.34800 -0.23900
N 	N 	0.51040 0.34660 0.17130 -0.23600
N 	N 	0.69840 0.95630 0.51990 -0.23600
N 	N 	0.32660 0.62620 0.52890 -0.21400
N 	N 	0.68890 0.49850 0.00780 -0.24400
N 	N 	0.49420 0.82930 0.65200 -0.21800
N 	N 	0.48960 0.65340 0.82870 -0.21800
N 	N 	0.30160 0.04370 0.48010 -0.20700
N 	N 	0.67340 0.37380 0.47110 -0.22100
N 	N 	0.31110 0.50150 0.99220 -0.20900
O 	O 	0.41490 0.35050 0.54690 -0.38600
O 	O 	0.45260 0.13780 0.58590 -0.40200
O 	O 	0.45720 0.57760 0.31440 -0.39500
O 	O 	0.45150 0.60350 0.11880 -0.40900
O 	O 	0.58510 0.64950 0.45310 -0.38300
O 	O 	0.54740 0.86220 0.41410 -0.36100
O 	O 	0.54280 0.42240 0.68560 -0.38900
O 	O 	0.54850 0.39650 0.88120 -0.36500
