data_crystal

_audit_creation_method 'AiiDA-DDEC plugin'

_cell_length_a        14.79325
_cell_length_b        14.81329
_cell_length_c        14.77244

_cell_angle_alpha     60.02156
_cell_angle_beta     60.11940
_cell_angle_gamma     59.94050

_symmetry_space_group_name_Hall 'P 1'
_symmetry_space_group_name_H-M  'P 1'

loop_
_symmetry_equiv_pos_as_xyz
 'x,y,z'

loop_
_atom_site_label
_atom_site_type_symbol
_atom_site_fract_x
_atom_site_fract_y
_atom_site_fract_z
_atom_site_charge
Zr         Zr      0.38078   0.37896   0.61815   2.39002
Zr         Zr      0.61934   0.38069   0.61666   2.36913
Zr         Zr      0.38042   0.61651   0.62205   2.37945
Zr         Zr      0.61673   0.62125   0.38211   2.37771
Zr         Zr      0.37840   0.62135   0.38220   2.37610
Zr         Zr      0.61889   0.38472   0.37721   2.37760
H          H       0.35499   0.91773   0.07915   0.11914
H          H       0.91360   0.35872   0.65065   0.11110
H          H       0.36287   0.64252   0.90792   0.11885
H          H       0.91596   0.07977   0.35434   0.11678
H          H       0.64256   0.35817   0.09149   0.12615
H          H       0.07644   0.35824   0.91367   0.11984
H          H       0.64175   0.90845   0.35782   0.12575
H          H       0.36360   0.08607   0.64237   0.11977
H          H       0.35755   0.91487   0.65231   0.11548
H          H       0.90733   0.36559   0.08402   0.11624
H          H       0.08944   0.64470   0.90710   0.12742
H          H       0.08487   0.90900   0.36315   0.11383
H          H       0.35595   0.65153   0.07683   0.11790
H          H       0.90307   0.08610   0.64807   0.12710
H          H       0.90829   0.64377   0.35630   0.12354
H          H       0.36338   0.08588   0.90784   0.11949
H          H       0.08369   0.36506   0.64374   0.11940
H          H       0.64965   0.90335   0.08413   0.12178
H          H       0.40765   0.40183   0.78168   0.42582
H          H       0.40504   0.40883   0.40354   0.42501
H          H       0.78122   0.40851   0.40391   0.42734
H          H       0.40230   0.78215   0.41020   0.42610
H          H       0.14665   0.67789   0.33106   0.31411
H          H       0.03812   0.73193   0.28109   0.30391
H          H       0.67822   0.14513   0.33311   0.31080
H          H       0.73553   0.03354   0.28793   0.30026
H          H       0.15156   0.85039   0.67170   0.31392
H          H       0.05240   0.96250   0.71576   0.30177
H          H       0.67341   0.14915   0.84677   0.30397
H          H       0.71569   0.05325   0.96024   0.29676
H          H       0.84426   0.67866   0.14574   0.31378
H          H       0.94497   0.73448   0.03433   0.30156
H          H       0.68339   0.33905   0.83857   0.30968
H          H       0.73931   0.29368   0.93907   0.30245
C          C       0.59470   0.03664   0.94743   0.29660
C          C       0.04320   0.58795   0.41325   0.30229
C          C       0.42098   0.95130   0.04170  -0.13960
C          C       0.95013   0.42182   0.58580  -0.14815
C          C       0.42364   0.58107   0.94923  -0.07514
C          C       0.95042   0.04296   0.41987  -0.14893
C          C       0.58222   0.42083   0.04978  -0.21931
C          C       0.03775   0.95053   0.59262   0.29729
C          C       0.04190   0.42142   0.95026  -0.14409
C          C       0.58179   0.94775   0.42042  -0.22379
C          C       0.95530   0.58808   0.04298   0.29973
C          C       0.42428   0.04572   0.58090  -0.07411
C          C       0.42054   0.95131   0.58676  -0.14393
C          C       0.94895   0.42566   0.04413  -0.07550
C          C       0.58722   0.04349   0.41357   0.29683
C          C       0.04919   0.58340   0.94673  -0.21952
C          C       0.58839   0.41492   0.95449   0.29644
C          C       0.04311   0.94866   0.42532  -0.07646
C          C       0.41947   0.58650   0.04220  -0.13785
C          C       0.94350   0.04665   0.58580  -0.21953
C          C       0.94718   0.58338   0.41933  -0.22254
C          C       0.42636   0.04343   0.94684  -0.07454
C          C       0.04395   0.42541   0.58150  -0.07495
C          C       0.58763   0.94340   0.04429  -0.21978
C          C       0.50749   0.18947   0.79892   0.64221
C          C       0.51150   0.08804   0.89758  -0.16442
C          C       0.19135   0.50499   0.50084   0.64226
C          C       0.09211   0.50700   0.49743  -0.16963
C          C       0.50006   0.80266   0.19437   0.63913
C          C       0.50298   0.90101   0.09092  -0.01350
C          C       0.80002   0.50194   0.50453   0.63775
C          C       0.90108   0.50254   0.50366  -0.01154
C          C       0.50470   0.49907   0.80300   0.64136
C          C       0.50642   0.49715   0.90330  -0.16548
C          C       0.80074   0.19464   0.49894   0.63712
C          C       0.90035   0.09238   0.50151  -0.00992
C          C       0.50021   0.50770   0.19225   0.64047
C          C       0.50039   0.50509   0.09254  -0.01231
C          C       0.18986   0.80154   0.50704   0.64184
C          C       0.08876   0.90042   0.50994  -0.16700
C          C       0.19313   0.50070   0.80026   0.64126
C          C       0.09213   0.50205   0.90095  -0.01274
C          C       0.50030   0.80018   0.50721   0.63819
C          C       0.50096   0.90169   0.50529  -0.01230
C          C       0.80195   0.50720   0.19102   0.63753
C          C       0.90317   0.50761   0.09223  -0.16840
C          C       0.50422   0.19356   0.49844   0.64098
C          C       0.50611   0.09354   0.49652  -0.16597
N          N       0.08692   0.66725   0.32562  -0.60638
N          N       0.66775   0.08632   0.32593  -0.61052
N          N       0.07447   0.90829   0.67979  -0.61080
N          N       0.68267   0.07212   0.90459  -0.61091
N          N       0.92050   0.66766   0.08674  -0.61437
N          N       0.67121   0.32840   0.91704  -0.61949
O          O       0.43311   0.43056   0.70139  -1.05645
O          O       0.43165   0.43489   0.43120  -1.05513
O          O       0.43047   0.70192   0.43582  -1.05796
O          O       0.70093   0.43491   0.43094  -1.05781
O          O       0.54901   0.54929   0.55062  -1.16068
O          O       0.54762   0.55257   0.35058  -1.16018
O          O       0.54950   0.35197   0.54696  -1.16117
O          O       0.35090   0.54846   0.55058  -1.15952
O          O       0.42957   0.23035   0.75987  -0.62459
O          O       0.23240   0.42672   0.57667  -0.62480
O          O       0.58159   0.42318   0.76011  -0.63020
O          O       0.76088   0.23488   0.57559  -0.62623
O          O       0.23396   0.57650   0.76149  -0.62915
O          O       0.42347   0.76080   0.58420  -0.62070
O          O       0.57644   0.76094   0.42954  -0.62821
O          O       0.23300   0.42330   0.76125  -0.61833
O          O       0.42640   0.57493   0.76434  -0.62670
O          O       0.76309   0.23573   0.41993  -0.62343
O          O       0.58223   0.23328   0.75865  -0.62906
O          O       0.23241   0.58256   0.42563  -0.63012
O          O       0.57594   0.76381   0.23569  -0.63256
O          O       0.75868   0.57975   0.42876  -0.62576
O          O       0.42244   0.58389   0.23226  -0.61691
O          O       0.23061   0.76325   0.42865  -0.62996
O          O       0.76187   0.43074   0.23035  -0.62482
O          O       0.57956   0.23679   0.42122  -0.62607
O          O       0.75945   0.58363   0.23359  -0.62971
O          O       0.42731   0.23304   0.57570  -0.62665
O          O       0.23328   0.76006   0.58267  -0.62777
O          O       0.57807   0.43153   0.23159  -0.63011
O          O       0.76308   0.42273   0.57949  -0.62432
O          O       0.42147   0.76512   0.23554  -0.61762

