data_crystal

_cell_length_a 10.38030
_cell_length_b 11.35080
_cell_length_c 12.98940
_cell_angle_alpha 72.43500
_cell_angle_beta  89.86700
_cell_angle_gamma 87.37200

_symmetry_space_group_name_	'P 1'
_symmetry_space_group_name_H-M	'P 1'

loop_
_symmetry_equiv_pos_as_xyz
  x,y,z

loop_
_atom_site_label
_atom_site_type_symbol
_atom_site_fract_x
_atom_site_fract_y
_atom_site_fract_z
_atom_site_charge
Dy	Dy	0.47900 0.04557 0.33970 1.66100
C 	C 	0.49470 0.26590 0.17050 0.32900
C 	C 	0.50930 0.75470 0.50590 0.44600
C 	C 	0.26650 0.00910 0.56460 0.38500
C 	C 	0.49820 0.38530 0.08570 -0.10900
C 	C 	0.50540 0.62170 0.50550 -0.14700
C 	C 	0.12950 0.00460 0.53010 -0.14100
C 	C 	0.44810 0.49490 0.10210 0.05200
C 	C 	0.38940 0.56080 0.52770 0.04900
C 	C 	0.07670 0.09770 0.44080 0.02900
C 	C 	0.39840 0.49610 0.20580 -0.08400
H 	H 	0.40000 0.42270 0.26250 0.07900
C 	C 	0.27430 0.62030 0.55250 -0.07700
H 	H 	0.27620 0.70080 0.55590 0.06000
C 	C 	0.14970 0.19890 0.38000 -0.07300
H 	H 	0.23460 0.20400 0.40030 0.04400
C 	C 	0.34980 0.60110 0.22220 -0.02100
H 	H 	0.31890 0.59970 0.28980 0.04000
C 	C 	0.16190 0.56070 0.57110 -0.03400
H 	H 	0.08750 0.60100 0.58620 0.04500
C 	C 	0.09740 0.28760 0.29330 -0.04500
H 	H 	0.14680 0.35220 0.25440 0.05200
C 	C 	0.34550 0.71480 0.13570 -0.03400
H 	H 	0.31030 0.78650 0.14720 0.02700
C 	C 	0.15760 0.43710 0.56760 -0.02000
H 	H 	0.08030 0.39700 0.58090 0.03700
C 	C 	0.96730 0.28170 0.26190 -0.01300
H 	H 	0.93240 0.34260 0.20230 0.04100
C 	C 	0.39230 0.71910 0.03720 -0.06700
H 	H 	0.38950 0.79400 0.98230 0.04700
C 	C 	0.26490 0.37650 0.54510 -0.08800
H 	H 	0.26060 0.29500 0.54460 0.06700
C 	C 	0.89330 0.18860 0.31760 -0.09900
H 	H 	0.80820 0.18700 0.29600 0.08500
C 	C 	0.44610 0.61030 0.01610 0.03800
C 	C 	0.38420 0.43660 0.52210 0.05500
C 	C 	0.94480 0.09240 0.40950 0.05500
O 	O 	0.38672 0.21701 0.19472 -0.41900
O 	O 	0.49139 0.83365 0.41492 -0.49100
O 	O 	0.35951 0.99366 0.50523 -0.52800
O 	O 	0.59665 0.21370 0.21748 -0.39200
O 	O 	0.53038 0.77575 0.59375 -0.44000
O 	O 	0.28755 0.01943 0.65607 -0.40100
Dy	Dy	0.52100 0.95443 0.66030 1.66100
C 	C 	0.50530 0.73410 0.82950 0.32900
C 	C 	0.49070 0.24530 0.49410 0.44600
C 	C 	0.73350 0.99090 0.43540 0.38500
C 	C 	0.50180 0.61470 0.91430 -0.10900
C 	C 	0.49460 0.37830 0.49450 -0.14700
C 	C 	0.87050 0.99540 0.46990 -0.14100
C 	C 	0.55190 0.50510 0.89790 0.05200
C 	C 	0.61060 0.43920 0.47230 0.04900
C 	C 	0.92330 0.90230 0.55920 0.02900
C 	C 	0.60160 0.50390 0.79420 -0.08400
H 	H 	0.60000 0.57730 0.73750 0.07900
C 	C 	0.72570 0.37970 0.44750 -0.07700
H 	H 	0.72380 0.29920 0.44410 0.06000
C 	C 	0.85030 0.80110 0.62000 -0.07300
H 	H 	0.76540 0.79600 0.59970 0.04400
C 	C 	0.65020 0.39890 0.77780 -0.02100
H 	H 	0.68110 0.40030 0.71020 0.04000
C 	C 	0.83810 0.43930 0.42890 -0.03400
H 	H 	0.91250 0.39900 0.41380 0.04500
C 	C 	0.90260 0.71240 0.70670 -0.04500
H 	H 	0.85320 0.64780 0.74560 0.05200
C 	C 	0.65450 0.28520 0.86430 -0.03400
H 	H 	0.68970 0.21350 0.85280 0.02700
C 	C 	0.84240 0.56290 0.43240 -0.02000
H 	H 	0.91970 0.60300 0.41910 0.03700
C 	C 	0.03270 0.71830 0.73810 -0.01300
H 	H 	0.06760 0.65740 0.79770 0.04100
C 	C 	0.60770 0.28090 0.96280 -0.06700
H 	H 	0.61050 0.20600 0.01770 0.04700
C 	C 	0.73510 0.62350 0.45490 -0.08800
H 	H 	0.73940 0.70500 0.45540 0.06700
C 	C 	0.10670 0.81140 0.68240 -0.09900
H 	H 	0.19180 0.81300 0.70400 0.08500
C 	C 	0.55390 0.38970 0.98390 0.03800
C 	C 	0.61580 0.56340 0.47790 0.05500
C 	C 	0.05520 0.90760 0.59050 0.05500
O 	O 	0.61328 0.78299 0.80528 -0.41900
O 	O 	0.50861 0.16635 0.58508 -0.49100
O 	O 	0.64049 0.00634 0.49477 -0.52800
O 	O 	0.40335 0.78630 0.78252 -0.39200
O 	O 	0.46962 0.22425 0.40625 -0.44000
O 	O 	0.71245 0.98057 0.34393 -0.40100
