data_crystal

_audit_creation_method 'AiiDA-DDEC plugin'

_cell_length_a        18.38148
_cell_length_b        18.37162
_cell_length_c        18.45616

_cell_angle_alpha     60.19871
_cell_angle_beta     60.30465
_cell_angle_gamma     60.26426

_symmetry_space_group_name_Hall 'P 1'
_symmetry_space_group_name_H-M  'P 1'

loop_
_symmetry_equiv_pos_as_xyz
 'x,y,z'

loop_
_atom_site_label
_atom_site_type_symbol
_atom_site_fract_x
_atom_site_fract_y
_atom_site_fract_z
_atom_site_charge
Zn         Zn      0.79238   0.79243   0.79535   0.95878
Zn         Zn      0.79407   0.79310   0.61973   0.95971
Zn         Zn      0.79396   0.61851   0.79186   0.96278
Zn         Zn      0.61948   0.79407   0.79222   0.95869
Zn         Zn      0.20553   0.20529   0.20808   0.96180
Zn         Zn      0.20799   0.20788   0.37961   0.95568
Zn         Zn      0.38016   0.20645   0.20679   0.96094
Zn         Zn      0.20533   0.38137   0.20623   0.96066
H          H       0.94149   0.96284   0.66806   0.12245
H          H       0.95531   0.94617   0.43749   0.12255
H          H       0.66114   0.43384   0.92645   0.12351
H          H       0.43400   0.66379   0.96899   0.12269
H          H       0.94161   0.66573   0.43004   0.12677
H          H       0.97219   0.43506   0.66026   0.12578
H          H       0.66295   0.95038   0.95372   0.12289
H          H       0.42969   0.94740   0.95640   0.12352
H          H       0.96675   0.43037   0.93611   0.12301
H          H       0.93829   0.66145   0.96617   0.12243
H          H       0.66534   0.95066   0.43244   0.12336
H          H       0.43223   0.93680   0.66259   0.12738
H          H       0.05082   0.04392   0.34070   0.12347
H          H       0.03722   0.06060   0.57115   0.12306
H          H       0.56376   0.33798   0.02279   0.12417
H          H       0.33698   0.56760   0.06664   0.12264
H          H       0.33671   0.03491   0.56563   0.12676
H          H       0.56971   0.04954   0.33549   0.12316
H          H       0.06448   0.33395   0.03096   0.12369
H          H       0.03630   0.56470   0.06096   0.12307
H          H       0.56729   0.04512   0.05156   0.12283
H          H       0.33408   0.04223   0.05395   0.12327
H          H       0.07059   0.33851   0.56393   0.12405
H          H       0.03836   0.56894   0.33421   0.12634
C          C       0.88733   0.88978   0.61512   0.59374
C          C       0.61110   0.61093   0.88561   0.59780
C          C       0.89296   0.61275   0.60812   0.59426
C          C       0.60915   0.88828   0.89003   0.59476
C          C       0.88811   0.60877   0.88981   0.59498
C          C       0.61155   0.88324   0.61043   0.59598
C          C       0.10673   0.11534   0.39220   0.59495
C          C       0.38685   0.39070   0.10783   0.59796
C          C       0.39038   0.10861   0.38787   0.59357
C          C       0.11209   0.38675   0.10979   0.59505
C          C       0.38793   0.10692   0.11526   0.59435
C          C       0.11588   0.39125   0.38683   0.59415
C          C       0.96604   0.98091   0.59645  -0.09444
C          C       0.97360   0.97165   0.46586  -0.09242
C          C       0.59013   0.46227   0.95706  -0.09413
C          C       0.46153   0.59258   0.98104  -0.09317
C          C       0.96983   0.59418   0.45866  -0.09885
C          C       0.98724   0.46342   0.58895  -0.09764
C          C       0.59100   0.97103   0.97603  -0.09600
C          C       0.45901   0.96934   0.97741  -0.09579
C          C       0.98232   0.45901   0.96381  -0.09464
C          C       0.96628   0.58983   0.98072  -0.09308
C          C       0.59346   0.96942   0.46069  -0.09588
C          C       0.46160   0.96152   0.59106  -0.09694
C          C       0.02632   0.02583   0.41226  -0.09593
C          C       0.01881   0.03519   0.54276  -0.09495
C          C       0.53624   0.40920   0.01046  -0.09594
C          C       0.40774   0.53945   0.03480  -0.09417
C          C       0.40861   0.01593   0.53732  -0.09821
C          C       0.54046   0.02410   0.40698  -0.09394
C          C       0.03646   0.40554   0.01642  -0.09541
C          C       0.02050   0.53634   0.03321  -0.09564
C          C       0.53802   0.02359   0.03010  -0.09478
C          C       0.40603   0.02188   0.03149  -0.09680
C          C       0.04143   0.41003   0.53581  -0.09541
C          C       0.02351   0.54077   0.40553  -0.09776
C          C       0.94338   0.94865   0.55823  -0.03470
C          C       0.55306   0.55414   0.94206  -0.03658
C          C       0.95107   0.55570   0.55071  -0.03351
C          C       0.55188   0.94384   0.94906  -0.03297
C          C       0.94669   0.55139   0.94591  -0.03412
C          C       0.55436   0.93853   0.55300  -0.03587
C          C       0.04927   0.05788   0.45036  -0.03507
C          C       0.44476   0.44759   0.04965  -0.03628
C          C       0.44770   0.04808   0.44507  -0.03400
C          C       0.05553   0.44388   0.05172  -0.03427
C          C       0.44513   0.04964   0.05789  -0.03275
C          C       0.05945   0.44850   0.44390  -0.03459
O          O       0.75011   0.74934   0.74972  -1.00901
O          O       0.24969   0.25055   0.24982  -1.00913
O          O       0.86781   0.86467   0.69888  -0.54212
O          O       0.86372   0.86940   0.57494  -0.54475
O          O       0.69485   0.57092   0.85858  -0.54672
O          O       0.57207   0.69471   0.86940  -0.54535
O          O       0.87018   0.69689   0.56868  -0.54445
O          O       0.87092   0.57279   0.69172  -0.54489
O          O       0.69317   0.86564   0.86879  -0.54591
O          O       0.56945   0.86829   0.86537  -0.54296
O          O       0.86852   0.56908   0.86469  -0.54535
O          O       0.86245   0.69273   0.87168  -0.54386
O          O       0.69550   0.86270   0.57124  -0.54338
O          O       0.57159   0.86185   0.69407  -0.54556
O          O       0.12891   0.13600   0.30861  -0.54710
O          O       0.12908   0.13876   0.43086  -0.54111
O          O       0.42603   0.30656   0.12758  -0.54752
O          O       0.30311   0.43094   0.13303  -0.54397
O          O       0.30649   0.12860   0.42744  -0.54352
O          O       0.42980   0.13567   0.30434  -0.54321
O          O       0.13784   0.30263   0.12872  -0.54421
O          O       0.12965   0.42706   0.13602  -0.54454
O          O       0.42791   0.12882   0.13773  -0.54548
O          O       0.30388   0.12923   0.13700  -0.54417
O          O       0.14183   0.30728   0.42620  -0.54430
O          O       0.13315   0.43104   0.30334  -0.54421

