data_crystal

_cell_length_a 11.07780
_cell_length_b 11.07780
_cell_length_c 27.87930
_cell_angle_alpha 90.00000
_cell_angle_beta  90.00000
_cell_angle_gamma 120.00000

_symmetry_space_group_name_	'P 1'
_symmetry_space_group_name_H-M	'P 1'

loop_
_symmetry_equiv_pos_as_xyz
  x,y,z

loop_
_atom_site_label
_atom_site_type_symbol
_atom_site_fract_x
_atom_site_fract_y
_atom_site_fract_z
_atom_site_charge
Co	Co	0.92015 0.17075 0.02920 1.11600
Co	Co	0.25060 0.07985 0.36253 1.11600
Co	Co	0.82925 0.74940 0.69586 1.11600
Co	Co	0.74940 0.82925 0.97080 1.11600
Co	Co	0.17075 0.92015 0.63747 1.11600
Co	Co	0.07985 0.25060 0.30414 1.11600
H 	H 	0.93570 0.44140 0.00030 0.02100
H 	H 	0.65740 0.50240 0.07230 0.04100
H 	H 	0.74510 0.20780 0.11060 0.01500
H 	H 	0.68900 0.24540 0.18460 0.08500
H 	H 	0.54470 0.19710 0.25030 0.02300
H 	H 	0.30110 0.29710 0.17450 0.00300
H 	H 	0.44470 0.34730 0.10890 0.10100
H 	H 	0.50570 0.06430 0.33363 0.02100
H 	H 	0.84500 0.34260 0.40563 0.04100
H 	H 	0.46270 0.25490 0.44393 0.01500
H 	H 	0.55640 0.31100 0.51793 0.08500
H 	H 	0.65240 0.45530 0.58363 0.02300
H 	H 	0.99600 0.69890 0.50783 0.00300
H 	H 	0.90260 0.55530 0.44223 0.10200
H 	H 	0.55860 0.49430 0.66697 0.02100
H 	H 	0.49760 0.15500 0.73897 0.04100
H 	H 	0.79220 0.53730 0.77727 0.01500
H 	H 	0.75460 0.44360 0.85127 0.08500
H 	H 	0.80290 0.34760 0.91697 0.02300
H 	H 	0.70290 0.00400 0.84117 0.00300
H 	H 	0.65270 0.09740 0.77557 0.10200
H 	H 	0.49430 0.55860 0.99970 0.02100
H 	H 	0.15500 0.49760 0.92770 0.04100
H 	H 	0.53730 0.79220 0.88940 0.01500
H 	H 	0.44360 0.75460 0.81540 0.08500
H 	H 	0.34760 0.80290 0.74970 0.02300
H 	H 	0.00400 0.70290 0.82550 0.00300
H 	H 	0.09740 0.65270 0.89110 0.10200
H 	H 	0.44140 0.93570 0.66637 0.02100
H 	H 	0.50240 0.65740 0.59437 0.04100
H 	H 	0.20780 0.74510 0.55607 0.01500
H 	H 	0.24540 0.68900 0.48207 0.08500
H 	H 	0.19710 0.54470 0.41637 0.02300
H 	H 	0.29710 0.30110 0.49217 0.00300
H 	H 	0.34730 0.44470 0.55777 0.10100
H 	H 	0.06430 0.50570 0.33303 0.02100
H 	H 	0.34260 0.84500 0.26103 0.04100
H 	H 	0.25490 0.46270 0.22273 0.01500
H 	H 	0.31100 0.55640 0.14873 0.08500
H 	H 	0.45530 0.65240 0.08303 0.02400
H 	H 	0.69890 0.99600 0.15883 0.00300
H 	H 	0.55530 0.90260 0.22443 0.10200
C 	C 	0.87090 0.41660 0.02496 0.06900
C 	C 	0.80090 0.49090 0.03023 -0.10800
C 	C 	0.70570 0.45460 0.06794 0.01700
C 	C 	0.68370 0.34790 0.09859 -0.06100
C 	C 	0.75860 0.27940 0.08999 0.03700
C 	C 	0.58650 0.30750 0.14004 0.10700
C 	C 	0.61250 0.25850 0.18254 -0.15600
C 	C 	0.52540 0.22890 0.22203 0.08100
C 	C 	0.41100 0.24630 0.21969 -0.15800
C 	C 	0.38040 0.28880 0.17679 0.09000
C 	C 	0.46660 0.31900 0.13744 -0.16900
C 	C 	0.82680 0.60490 0.99501 0.34100
C 	C 	0.32080 0.22430 0.26363 0.41500
C 	C 	0.54570 0.12910 0.35829 0.06900
C 	C 	0.69000 0.19910 0.36356 -0.10800
C 	C 	0.74890 0.29430 0.40127 0.01700
C 	C 	0.66420 0.31630 0.43192 -0.06100
C 	C 	0.52080 0.24140 0.42332 0.03700
C 	C 	0.72100 0.41350 0.47337 0.10800
C 	C 	0.64600 0.38750 0.51587 -0.15600
C 	C 	0.70350 0.47460 0.55536 0.08200
C 	C 	0.83530 0.58900 0.55302 -0.15800
C 	C 	0.90840 0.61960 0.51012 0.09000
C 	C 	0.85240 0.53340 0.47077 -0.16900
C 	C 	0.77810 0.17320 0.32834 0.34200
C 	C 	0.90350 0.67920 0.59696 0.41600
C 	C 	0.58340 0.45430 0.69163 0.06900
C 	C 	0.50910 0.31000 0.69690 -0.10800
C 	C 	0.54540 0.25110 0.73461 0.01700
C 	C 	0.65210 0.33580 0.76526 -0.06100
C 	C 	0.72060 0.47920 0.75666 0.03700
C 	C 	0.69250 0.27900 0.80671 0.10800
C 	C 	0.74150 0.35400 0.84921 -0.15600
C 	C 	0.77110 0.29650 0.88870 0.08200
C 	C 	0.75370 0.16470 0.88636 -0.15900
C 	C 	0.71120 0.09160 0.84346 0.09100
C 	C 	0.68100 0.14760 0.80411 -0.16900
C 	C 	0.39510 0.22190 0.66168 0.34200
C 	C 	0.77570 0.09650 0.93030 0.41700
C 	C 	0.45430 0.58340 0.97504 0.06900
C 	C 	0.31000 0.50910 0.96977 -0.10800
C 	C 	0.25110 0.54540 0.93206 0.01700
C 	C 	0.33580 0.65210 0.90141 -0.06100
C 	C 	0.47920 0.72060 0.91001 0.03700
C 	C 	0.27900 0.69250 0.85996 0.10800
C 	C 	0.35400 0.74150 0.81746 -0.15600
C 	C 	0.29650 0.77110 0.77797 0.08200
C 	C 	0.16470 0.75370 0.78031 -0.15800
C 	C 	0.09160 0.71120 0.82321 0.09000
C 	C 	0.14760 0.68100 0.86256 -0.16900
C 	C 	0.22190 0.39510 0.00499 0.34200
C 	C 	0.09650 0.77570 0.73637 0.41600
C 	C 	0.41660 0.87090 0.64171 0.06900
C 	C 	0.49090 0.80090 0.63644 -0.10900
C 	C 	0.45460 0.70570 0.59873 0.01700
C 	C 	0.34790 0.68370 0.56808 -0.06100
C 	C 	0.27940 0.75860 0.57668 0.03700
C 	C 	0.30750 0.58650 0.52663 0.10800
C 	C 	0.25850 0.61250 0.48413 -0.15600
C 	C 	0.22890 0.52540 0.44464 0.08100
C 	C 	0.24630 0.41100 0.44698 -0.15800
C 	C 	0.28880 0.38040 0.48988 0.09000
C 	C 	0.31900 0.46660 0.52923 -0.16900
C 	C 	0.60490 0.82680 0.67166 0.34200
C 	C 	0.22430 0.32080 0.40304 0.41500
C 	C 	0.12910 0.54570 0.30837 0.06900
C 	C 	0.19910 0.69000 0.30310 -0.10800
C 	C 	0.29430 0.74890 0.26539 0.01700
C 	C 	0.31630 0.66420 0.23474 -0.06100
C 	C 	0.24140 0.52080 0.24334 0.03700
C 	C 	0.41350 0.72100 0.19329 0.10800
C 	C 	0.38750 0.64600 0.15079 -0.15600
C 	C 	0.47460 0.70350 0.11130 0.08200
C 	C 	0.58900 0.83530 0.11364 -0.15800
C 	C 	0.61960 0.90840 0.15654 0.09100
C 	C 	0.53340 0.85240 0.19589 -0.16900
C 	C 	0.17320 0.77810 0.33832 0.34200
C 	C 	0.67920 0.90350 0.06970 0.41600
N 	N 	0.84900 0.31130 0.05370 -0.21600
N 	N 	0.46230 0.15100 0.38703 -0.21600
N 	N 	0.68870 0.53770 0.72037 -0.21600
N 	N 	0.53770 0.68870 0.94630 -0.21600
N 	N 	0.31130 0.84900 0.61297 -0.21600
N 	N 	0.15100 0.46230 0.27963 -0.21600
O 	O 	0.90360 0.62260 0.96022 -0.30500
O 	O 	0.76840 0.67540 0.00530 -0.43600
O 	O 	0.35350 0.18550 0.30121 -0.45800
O 	O 	0.22400 0.24890 0.25884 -0.49800
O 	O 	0.71900 0.09640 0.29355 -0.30500
O 	O 	0.90700 0.23160 0.33863 -0.43600
O 	O 	0.83200 0.64650 0.63454 -0.45800
O 	O 	0.02490 0.77600 0.59217 -0.49800
O 	O 	0.37740 0.28100 0.62689 -0.30500
O 	O 	0.32460 0.09300 0.67197 -0.43600
O 	O 	0.81450 0.16800 0.96788 -0.45900
O 	O 	0.75110 0.97510 0.92551 -0.49900
O 	O 	0.28100 0.37740 0.03978 -0.30500
O 	O 	0.09300 0.32460 0.99470 -0.43600
O 	O 	0.16800 0.81450 0.69879 -0.45900
O 	O 	0.97510 0.75110 0.74116 -0.49800
O 	O 	0.62260 0.90360 0.70645 -0.30600
O 	O 	0.67540 0.76840 0.66137 -0.43700
O 	O 	0.18550 0.35350 0.36546 -0.45800
O 	O 	0.24890 0.22400 0.40783 -0.49800
O 	O 	0.09640 0.71900 0.37311 -0.30500
O 	O 	0.23160 0.90700 0.32803 -0.43600
O 	O 	0.64650 0.83200 0.03212 -0.45800
O 	O 	0.77600 0.02490 0.07449 -0.49900
