data_crystal

_cell_length_a 27.89365
_cell_length_b 9.25337
_cell_length_c 7.76883
_cell_angle_alpha 89.89091
_cell_angle_beta  90.19801
_cell_angle_gamma 90.58547

_symmetry_space_group_name_	'P 1'
_symmetry_space_group_name_H-M	'P 1'

loop_
_symmetry_equiv_pos_as_xyz
  x,y,z

loop_
_atom_site_label
_atom_site_type_symbol
_atom_site_fract_x
_atom_site_fract_y
_atom_site_fract_z
_atom_site_charge
O 	O 	0.50000 0.28839 0.64276 -0.34100
O 	O 	0.50000 0.71161 0.35724 -0.33900
O 	O 	0.50000 0.71161 0.64276 -0.34100
O 	O 	0.50000 0.28839 0.35724 -0.34000
C 	C 	0.50006 0.21971 0.50010 0.34300
C 	C 	0.50000 0.78029 0.49991 0.34100
O 	O 	0.43026 0.50000 0.64277 -0.34600
O 	O 	0.56974 0.50000 0.35723 -0.35000
O 	O 	0.56974 0.50000 0.64277 -0.35600
O 	O 	0.43026 0.50000 0.35723 -0.34800
C 	C 	0.40723 0.49871 0.49959 0.33600
C 	C 	0.59258 0.49752 0.50033 0.34000
Cu	Cu	0.50000 0.50000 0.66908 0.92900
Cu	Cu	0.50000 0.50000 0.33092 0.93000
C 	C 	0.17752 0.36307 0.51914 0.25300
C 	C 	0.82429 0.59361 0.41345 0.25400
C 	C 	0.17792 0.61099 0.43350 0.25300
C 	C 	0.82474 0.34091 0.46373 0.25500
O 	O 	0.20222 0.24556 0.56933 -0.12000
O 	O 	0.80229 0.71155 0.35023 -0.12600
O 	O 	0.20309 0.73153 0.39290 -0.11800
O 	O 	0.80380 0.21695 0.51628 -0.12500
N 	N 	0.20174 0.48847 0.48079 -0.18800
N 	N 	0.79898 0.46738 0.44696 -0.18000
C 	C 	0.27754 0.58495 0.59833 -0.06800
C 	C 	0.71657 0.34881 0.45023 -0.06100
C 	C 	0.27930 0.39827 0.38190 -0.07000
C 	C 	0.72365 0.60134 0.51432 -0.06300
C 	C 	0.32767 0.59067 0.60269 0.01200
C 	C 	0.66779 0.35509 0.49184 0.00700
C 	C 	0.32931 0.39629 0.38832 0.01200
C 	C 	0.67387 0.61445 0.50291 0.01000
C 	C 	0.25331 0.49066 0.48723 0.14000
C 	C 	0.74660 0.47175 0.46884 0.13100
C 	C 	0.10203 0.48236 0.46172 0.12200
C 	C 	0.89982 0.47158 0.43739 0.12800
C 	C 	0.12720 0.35647 0.50740 -0.14500
C 	C 	0.87413 0.60002 0.43649 -0.15300
C 	C 	0.12751 0.61134 0.42556 -0.14500
C 	C 	0.87462 0.34037 0.43577 -0.15000
C 	C 	0.10141 0.22872 0.54389 0.30400
C 	C 	0.89851 0.73069 0.46424 0.31000
C 	C 	0.10205 0.73559 0.37775 0.30500
C 	C 	0.89987 0.21297 0.40613 0.31000
C 	C 	0.35429 0.49491 0.49762 -0.05100
C 	C 	0.64515 0.48936 0.50005 -0.05500
H 	H 	0.25999 0.32615 0.29609 0.09700
H 	H 	0.74414 0.69458 0.55435 0.09300
H 	H 	0.25685 0.65545 0.67992 0.09900
H 	H 	0.72987 0.24554 0.41015 0.10600
C 	C 	0.97587 0.34292 0.44027 0.01500
C 	C 	0.02596 0.60961 0.42572 0.01500
C 	C 	0.97533 0.60834 0.44320 0.01600
C 	C 	0.02608 0.34634 0.47061 0.01500
C 	C 	0.95051 0.47432 0.43987 -0.02200
C 	C 	0.05127 0.47938 0.45251 -0.01700
C 	C 	0.94993 0.21453 0.40359 0.23500
C 	C 	0.05214 0.73444 0.37633 0.23500
C 	C 	0.94847 0.73456 0.47305 0.23400
C 	C 	0.05171 0.22387 0.52686 0.23400
C 	C 	0.50010 0.06502 0.50018 0.00500
C 	C 	0.50009 0.93497 0.49991 0.00700
N 	N 	0.50000 0.50000 0.07682 -0.10000
N 	N 	0.50000 0.50000 0.92318 -0.11000
S 	S 	0.35855 0.26243 0.26490 0.35600
O 	O 	0.38276 0.33209 0.11303 -0.15400
O 	O 	0.39556 0.18793 0.37327 -0.17100
O 	O 	0.31897 0.13835 0.19186 -0.24600
H 	H 	0.30922 0.08241 0.29505 0.18400
S 	S 	0.64978 0.78863 0.48712 0.36000
O 	O 	0.60591 0.78831 0.37462 -0.15600
O 	O 	0.63641 0.83899 0.66412 -0.15900
O 	O 	0.69075 0.90021 0.39708 -0.24000
H 	H 	0.71679 0.91142 0.48288 0.18900
S 	S 	0.35526 0.72369 0.73548 0.35500
O 	O 	0.39317 0.80331 0.63520 -0.16100
O 	O 	0.31905 0.83083 0.79755 -0.16300
O 	O 	0.38082 0.64392 0.90690 -0.24400
H 	H 	0.35376 0.60047 0.97181 0.17400
S 	S 	0.63926 0.19524 0.56105 0.35600
O 	O 	0.61803 0.11829 0.40834 -0.15300
O 	O 	0.67649 0.10316 0.64603 -0.16900
O 	O 	0.59616 0.22619 0.70623 -0.25600
H 	H 	0.61340 0.25949 0.81092 0.18000
F 	F 	0.12389 0.10743 0.59877 -0.33900
F 	F 	0.87370 0.85077 0.50492 -0.33500
F 	F 	0.12511 0.85913 0.32962 -0.33700
F 	F 	0.87601 0.09073 0.36079 -0.33000
F 	F 	0.97235 0.09546 0.34430 -0.28100
F 	F 	0.03006 0.85157 0.30867 -0.28900
F 	F 	0.96964 0.85679 0.53353 -0.28300
F 	F 	0.02882 0.10308 0.58409 -0.29100
