data_crystal

_cell_length_a 21.63178
_cell_length_b 7.18240
_cell_length_c 14.88173
_cell_angle_alpha 89.90752
_cell_angle_beta  106.36994
_cell_angle_gamma 89.97468

_symmetry_space_group_name_	'P 1'
_symmetry_space_group_name_H-M	'P 1'

loop_
_symmetry_equiv_pos_as_xyz
  x,y,z

loop_
_atom_site_label
_atom_site_type_symbol
_atom_site_fract_x
_atom_site_fract_y
_atom_site_fract_z
_atom_site_charge
O 	O 	0.33586 0.63819 0.00211 -0.47600
O 	O 	0.66414 0.36181 0.99789 -0.47600
O 	O 	0.16414 0.13819 0.99789 -0.47700
O 	O 	0.83586 0.86181 0.00211 -0.47700
O 	O 	0.21753 0.30592 0.86196 -0.46700
O 	O 	0.78247 0.69408 0.13804 -0.46700
O 	O 	0.28247 0.80592 0.13804 -0.46500
O 	O 	0.71753 0.19408 0.86196 -0.46500
C 	C 	0.20584 0.47685 0.82585 0.31900
C 	C 	0.79416 0.52315 0.17415 0.31900
C 	C 	0.29419 0.97645 0.17421 0.31600
C 	C 	0.70581 0.02355 0.82579 0.31600
O 	O 	0.33869 0.30832 0.99324 -0.48100
O 	O 	0.66131 0.69168 0.00676 -0.48100
O 	O 	0.16131 0.80832 0.00676 -0.48000
O 	O 	0.83869 0.19168 0.99324 -0.48000
O 	O 	0.28617 0.14043 0.13010 -0.45500
O 	O 	0.71383 0.85957 0.86990 -0.45500
O 	O 	0.21383 0.64043 0.86990 -0.45700
O 	O 	0.78617 0.35957 0.13010 -0.45700
C 	C 	0.36498 0.47720 0.99780 0.33800
C 	C 	0.63502 0.52280 0.00220 0.33800
C 	C 	0.13502 0.97725 0.00219 0.33600
C 	C 	0.86498 0.02275 0.99781 0.33600
O 	O 	0.23263 0.47241 0.04475 -0.61700
O 	O 	0.76737 0.52759 0.95525 -0.61700
O 	O 	0.26737 0.97241 0.95525 -0.61300
O 	O 	0.73263 0.02759 0.04475 -0.61300
V 	V 	0.25322 0.19662 0.99170 1.79400
V 	V 	0.74678 0.80338 0.00830 1.79400
V 	V 	0.24678 0.69662 0.00830 1.79500
V 	V 	0.75322 0.30338 0.99170 1.79500
C 	C 	0.03008 0.82642 0.00442 -0.00800
C 	C 	0.96992 0.17358 0.99558 -0.00800
C 	C 	0.47009 0.32637 0.99615 -0.00800
C 	C 	0.52991 0.67363 0.00385 -0.00800
H 	H 	0.05203 0.69011 0.00769 0.04600
H 	H 	0.94797 0.30989 0.99231 0.04600
H 	H 	0.44827 0.19004 0.99335 0.04400
H 	H 	0.55173 0.80996 0.00665 0.04400
C 	C 	0.96512 0.83777 0.00283 -0.00800
C 	C 	0.03488 0.16223 0.99717 -0.00800
C 	C 	0.53505 0.33778 0.99775 -0.00700
C 	C 	0.46495 0.66222 0.00225 -0.00700
H 	H 	0.93936 0.70946 0.00522 0.04900
H 	H 	0.06064 0.29054 0.99478 0.04900
H 	H 	0.56094 0.20946 0.99584 0.04700
H 	H 	0.43906 0.79054 0.00416 0.04700
C 	C 	0.93402 0.01154 0.99836 -0.07200
C 	C 	0.06598 0.98846 0.00164 -0.07200
C 	C 	0.56598 0.51160 0.00165 -0.06900
C 	C 	0.43402 0.48840 0.99835 -0.06900
C 	C 	0.67813 0.01816 0.72418 -0.05700
C 	C 	0.32187 0.98184 0.27582 -0.05700
C 	C 	0.82201 0.51552 0.27561 -0.05500
C 	C 	0.17799 0.48448 0.72439 -0.05500
C 	C 	0.68967 0.06289 0.56825 0.05500
C 	C 	0.31033 0.93712 0.43175 0.05500
C 	C 	0.80924 0.52255 0.43217 0.05500
C 	C 	0.19076 0.47745 0.56783 0.05500
C 	C 	0.71680 0.05267 0.66540 -0.03400
C 	C 	0.28320 0.94733 0.33460 -0.03400
C 	C 	0.78246 0.52468 0.33481 -0.03400
C 	C 	0.21754 0.47532 0.66519 -0.03400
C 	C 	0.61189 0.99343 0.68697 -0.01200
C 	C 	0.38810 0.00657 0.31303 -0.01200
C 	C 	0.88874 0.50586 0.31248 -0.01400
C 	C 	0.11126 0.49414 0.68752 -0.01400
C 	C 	0.58204 0.00694 0.58944 0.00100
C 	C 	0.41796 0.99307 0.41056 0.00100
C 	C 	0.91810 0.50641 0.41030 0.00400
C 	C 	0.08190 0.49359 0.58970 0.00400
C 	C 	0.62211 0.04304 0.53015 -0.01000
C 	C 	0.37788 0.95697 0.46985 -0.01000
C 	C 	0.87709 0.51234 0.47016 -0.01100
C 	C 	0.12291 0.48767 0.52984 -0.01100
C 	C 	0.51371 0.98955 0.54940 0.00600
C 	C 	0.48629 0.01046 0.45060 0.00600
C 	C 	0.98667 0.50131 0.45027 0.00500
C 	C 	0.01333 0.49869 0.54973 0.00500
C 	C 	0.52811 0.04774 0.39502 -0.04000
C 	C 	0.47189 0.95227 0.60498 -0.04000
C 	C 	0.97050 0.50001 0.60599 -0.04000
C 	C 	0.02950 0.50000 0.39401 -0.04000
C 	C 	0.59412 0.06262 0.43381 -0.02800
C 	C 	0.40588 0.93740 0.56619 -0.02800
C 	C 	0.90432 0.50729 0.56713 -0.02900
C 	C 	0.09568 0.49272 0.43287 -0.02900
H 	H 	0.62319 0.09230 0.38699 0.04400
H 	H 	0.37681 0.90772 0.61301 0.04400
H 	H 	0.87442 0.50827 0.61452 0.04300
H 	H 	0.12558 0.49174 0.38548 0.04300
H 	H 	0.41481 0.02983 0.26300 0.04100
H 	H 	0.58519 0.97016 0.73699 0.04100
H 	H 	0.08404 0.50099 0.73783 0.04100
H 	H 	0.91596 0.49900 0.26217 0.04100
H 	H 	0.23186 0.92725 0.30447 0.04600
H 	H 	0.76814 0.07276 0.69553 0.04600
H 	H 	0.26930 0.46609 0.69507 0.04600
H 	H 	0.73070 0.53392 0.30493 0.04600
H 	H 	0.51167 0.06776 0.32043 0.04300
H 	H 	0.48833 0.93226 0.67957 0.04300
H 	H 	0.98621 0.49501 0.68124 0.04200
H 	H 	0.01379 0.50500 0.31876 0.04200
N 	N 	0.73028 0.09776 0.50829 -0.18200
H 	H 	0.77781 0.12197 0.54789 0.08600
H 	H 	0.73106 0.97654 0.46985 0.08000
N 	N 	0.26972 0.90225 0.49171 -0.18200
H 	H 	0.22219 0.87804 0.45211 0.08600
H 	H 	0.26894 0.02347 0.53014 0.08000
N 	N 	0.76781 0.53141 0.49263 -0.18300
H 	H 	0.71938 0.52429 0.45368 0.08600
H 	H 	0.77434 0.66181 0.52501 0.08100
N 	N 	0.23219 0.46861 0.50737 -0.18300
H 	H 	0.28062 0.47573 0.54632 0.08600
H 	H 	0.22566 0.33820 0.47499 0.08100
