data_crystal

_cell_length_a 6.94591
_cell_length_b 18.25841
_cell_length_c 20.12673
_cell_angle_alpha 68.35863
_cell_angle_beta  90.54113
_cell_angle_gamma 90.81094

_symmetry_space_group_name_	'P 1'
_symmetry_space_group_name_H-M	'P 1'

loop_
_symmetry_equiv_pos_as_xyz
  x,y,z

loop_
_atom_site_label
_atom_site_type_symbol
_atom_site_fract_x
_atom_site_fract_y
_atom_site_fract_z
_atom_site_charge
O 	O 	0.48896 0.44375 0.94198 -0.49200
O 	O 	0.82389 0.40651 0.08759 -0.48800
O 	O 	0.99968 0.55625 0.05802 -0.49500
C 	C 	0.65499 0.38339 0.11496 0.37900
O 	O 	0.81836 0.43441 0.94434 -0.49400
O 	O 	0.99411 0.58435 0.91375 -0.47100
C 	C 	0.64877 0.42019 0.92396 0.41500
O 	O 	0.49453 0.41565 0.08625 -0.48000
O 	O 	0.66259 0.54916 0.99013 -0.62600
V 	V 	0.93532 0.49088 0.00183 1.81200
O 	O 	0.32418 0.59349 0.91241 -0.48500
C 	C 	0.15544 0.61649 0.88493 0.38500
O 	O 	0.32972 0.56559 0.05566 -0.50700
C 	C 	0.16203 0.58000 0.07595 0.40600
V 	V 	0.43599 0.50912 0.99817 1.82000
O 	O 	0.15885 0.45084 0.00987 -0.63800
C 	C 	0.07864 0.70445 0.31372 -0.02900
C 	C 	0.26089 0.69389 0.27440 -0.02400
H 	H 	0.36638 0.64560 0.29590 0.04400
H 	H 	0.03348 0.66523 0.36813 0.04600
H 	H 	0.45222 0.80853 0.25498 0.03600
C 	C 	0.15543 0.62657 0.12082 -0.12300
C 	C 	0.11063 0.87542 0.37728 -0.12100
C 	C 	0.95864 0.72142 0.24439 -0.02100
C 	C 	0.14080 0.71142 0.20569 -0.00900
C 	C 	0.00571 0.81058 0.22167 -0.03200
C 	C 	0.12580 0.79299 0.29040 -0.00500
C 	C 	0.18799 0.79999 0.18231 -0.02700
C 	C 	0.30799 0.78305 0.25168 -0.02900
C 	C 	0.14910 0.66507 0.15880 0.06300
C 	C 	0.11727 0.83826 0.33818 0.05800
H 	H 	0.23280 0.83918 0.12784 0.03900
H 	H 	0.90036 0.85891 0.20009 0.03900
H 	H 	0.81439 0.69589 0.24119 0.04000
H 	H 	0.00174 0.52704 0.68945 0.03800
C 	C 	0.22599 0.77411 0.87953 -0.08200
C 	C 	0.25278 0.84893 0.88083 0.03500
C 	C 	0.22678 0.91461 0.81920 -0.09800
C 	C 	0.17652 0.90695 0.75468 0.17300
C 	C 	0.15721 0.83022 0.75053 -0.02600
C 	C 	0.17750 0.76292 0.81548 0.09200
C 	C 	0.11641 0.81782 0.68553 -0.06300
C 	C 	0.08647 0.74010 0.68684 0.02700
C 	C 	0.09895 0.67428 0.75233 0.06500
C 	C 	0.14559 0.68562 0.81643 -0.12600
C 	C 	0.04496 0.72629 0.62329 -0.03400
C 	C 	0.01435 0.65021 0.62458 -0.03100
C 	C 	0.02525 0.58609 0.68870 -0.01000
C 	C 	0.06768 0.59761 0.75193 -0.05800
H 	H 	0.24332 0.72512 0.92973 0.07100
H 	H 	0.29014 0.85606 0.93046 0.03700
H 	H 	0.24265 0.97251 0.82204 0.09500
H 	H 	0.03569 0.77390 0.57180 0.05500
H 	H 	0.98236 0.64098 0.57547 0.05000
H 	H 	0.07675 0.54564 0.80028 0.06000
C 	C 	0.58699 0.09557 0.24986 -0.08400
C 	C 	0.57760 0.08214 0.18569 0.04000
C 	C 	0.58915 0.14699 0.12084 -0.05300
C 	C 	0.61048 0.22324 0.12033 -0.02500
C 	C 	0.62140 0.23747 0.18464 0.02800
C 	C 	0.60941 0.17236 0.25071 0.07300
C 	C 	0.64453 0.31507 0.18390 -0.08900
C 	C 	0.65644 0.32738 0.24940 0.01100
C 	C 	0.64454 0.26217 0.31557 0.10100
C 	C 	0.62074 0.18471 0.31621 -0.13300
C 	C 	0.68007 0.40405 0.25043 0.00300
C 	C 	0.69178 0.41609 0.31484 -0.10800
C 	C 	0.68014 0.35237 0.37952 0.21200
C 	C 	0.65670 0.27614 0.38011 -0.13500
H 	H 	0.57735 0.04481 0.29931 0.05900
H 	H 	0.58181 0.13972 0.06995 0.06400
H 	H 	0.61888 0.27095 0.06879 0.05600
H 	H 	0.68985 0.45546 0.20157 0.04500
H 	H 	0.70996 0.47530 0.31432 0.08400
H 	H 	0.64811 0.22827 0.43154 0.10500
O 	O 	0.77054 0.08453 0.41405 -0.48600
O 	O 	0.44571 0.06566 0.55572 -0.47700
O 	O 	0.27042 0.91565 0.58619 -0.45500
C 	C 	0.61508 0.07973 0.57639 0.40400
O 	O 	0.44114 0.09354 0.41247 -0.49100
O 	O 	0.26582 0.94374 0.44193 -0.48800
C 	C 	0.61009 0.11654 0.38516 0.39500
O 	O 	0.77515 0.05644 0.55831 -0.46600
O 	O 	0.60237 0.95096 0.51005 -0.62800
V 	V 	0.32945 0.00914 0.49815 1.81400
O 	O 	0.93579 0.93428 0.44406 -0.49800
C 	C 	0.10363 0.92048 0.42343 0.40300
O 	O 	0.94037 0.90639 0.58731 -0.46500
C 	C 	0.10874 0.88452 0.61564 0.38800
V 	V 	0.82881 0.99071 0.50146 1.82300
O 	O 	0.10578 0.04910 0.48996 -0.62600
C 	C 	0.77584 0.30229 0.73221 0.01000
C 	C 	0.60659 0.29812 0.68276 -0.04700
H 	H 	0.58641 0.33835 0.62638 0.07200
H 	H 	0.89486 0.34652 0.71695 0.03900
H 	H 	0.32342 0.31725 0.73928 0.03800
C 	C 	0.62465 0.12515 0.62212 -0.08100
C 	C 	0.63860 0.37416 0.87875 -0.13100
C 	C 	0.80028 0.21166 0.75725 -0.07900
C 	C 	0.63078 0.20814 0.70848 0.03400
C 	C 	0.65551 0.20060 0.81804 0.17600
C 	C 	0.63166 0.29007 0.79328 -0.06300
C 	C 	0.48630 0.19566 0.76950 -0.08000
C 	C 	0.46249 0.28633 0.74445 0.00900
C 	C 	0.62882 0.16268 0.66090 0.07200
C 	C 	0.63397 0.33607 0.84044 0.10800
H 	H 	0.36770 0.15124 0.78505 0.07500
H 	H 	0.93914 0.18050 0.76275 0.07800
Cl	Cl	0.12706 0.99762 0.68506 -0.31300
Cl	Cl	0.69495 0.36790 0.46045 -0.33500
C 	C 	0.55525 0.99756 0.19024 -0.06900
C 	C 	0.55747 0.98590 0.11881 -0.10700
H 	H 	0.43322 0.01590 0.08508 0.05600
H 	H 	0.69456 0.00870 0.09020 0.05900
H 	H 	0.54607 0.92203 0.12868 0.05300
H 	H 	0.67417 0.96238 0.22384 0.05000
H 	H 	0.41752 0.97303 0.21768 0.05300
Cl	Cl	0.68750 0.13547 0.90833 -0.33400
