data_crystal

_cell_length_a 21.97818
_cell_length_b 7.20678
_cell_length_c 14.93758
_cell_angle_alpha 89.93984
_cell_angle_beta  107.22235
_cell_angle_gamma 89.97818

_symmetry_space_group_name_	'P 1'
_symmetry_space_group_name_H-M	'P 1'

loop_
_symmetry_equiv_pos_as_xyz
  x,y,z

loop_
_atom_site_label
_atom_site_type_symbol
_atom_site_fract_x
_atom_site_fract_y
_atom_site_fract_z
_atom_site_charge
O 	O 	0.58477 0.50577 0.00209 -0.47900
O 	O 	0.41523 0.00577 0.99791 -0.47800
O 	O 	0.46706 0.17334 0.86195 -0.46600
O 	O 	0.53294 0.67334 0.13805 -0.46500
C 	C 	0.45496 0.34412 0.82592 0.32800
C 	C 	0.54505 0.84388 0.17411 0.32400
O 	O 	0.58751 0.17589 0.99321 -0.48300
O 	O 	0.41249 0.67589 0.00679 -0.48300
O 	O 	0.53654 0.00815 0.13010 -0.45500
O 	O 	0.46346 0.50815 0.86990 -0.45900
C 	C 	0.61253 0.34505 0.99586 0.37500
C 	C 	0.38747 0.84509 0.00415 0.37400
O 	O 	0.48314 0.34004 0.04476 -0.61100
O 	O 	0.51686 0.84004 0.95524 -0.61100
V 	V 	0.50313 0.06419 0.99170 1.79400
V 	V 	0.49687 0.56419 0.00830 1.79500
C 	C 	0.21675 0.73860 0.01602 -0.07600
C 	C 	0.78332 0.23860 0.98417 -0.07300
C 	C 	0.17769 0.88474 0.98308 0.07200
C 	C 	0.82229 0.38481 0.01688 0.07200
H 	H 	0.19934 0.62300 0.04818 0.07100
H 	H 	0.80081 0.12295 0.95221 0.07000
C 	C 	0.28247 0.71810 0.00760 0.07500
C 	C 	0.71761 0.21805 0.99261 0.07300
C 	C 	0.32195 0.86253 0.01106 -0.17700
C 	C 	0.67804 0.36245 0.98892 -0.17100
H 	H 	0.29961 0.57794 0.00354 0.03400
H 	H 	0.70055 0.07790 0.99687 0.03400
H 	H 	0.30665 0.00161 0.02184 0.12000
H 	H 	0.69326 0.50153 0.97795 0.11600
C 	C 	0.92740 0.88670 0.72375 -0.07600
C 	C 	0.07272 0.38515 0.27614 -0.07700
C 	C 	0.57403 0.84670 0.27572 -0.08900
C 	C 	0.42597 0.34812 0.72436 -0.09000
C 	C 	0.93820 0.91603 0.56824 -0.06000
C 	C 	0.06139 0.39776 0.43182 -0.06000
C 	C 	0.96552 0.91568 0.66510 0.01800
C 	C 	0.03417 0.40257 0.33496 0.02100
C 	C 	0.86209 0.85493 0.68547 -0.01800
C 	C 	0.13839 0.35953 0.31414 -0.01700
C 	C 	0.83379 0.84315 0.58742 0.02600
C 	C 	0.16668 0.34157 0.41193 0.02600
C 	C 	0.87262 0.88433 0.52916 0.01800
C 	C 	0.12732 0.37144 0.47062 0.01900
C 	C 	0.76748 0.80478 0.54566 -0.08600
C 	C 	0.23333 0.30721 0.45327 -0.08500
C 	C 	0.73931 0.84273 0.44798 0.05400
C 	C 	0.26096 0.33862 0.55160 0.05400
C 	C 	0.77997 0.88603 0.39309 -0.05400
C 	C 	0.21977 0.37091 0.60698 -0.05400
C 	C 	0.84542 0.90023 0.43271 -0.03400
C 	C 	0.15421 0.38086 0.56734 -0.03400
C 	C 	0.72809 0.72901 0.59725 0.18500
C 	C 	0.27354 0.24133 0.40065 0.18500
C 	C 	0.66224 0.73072 0.55932 -0.14500
C 	C 	0.33934 0.24682 0.43898 -0.14500
C 	C 	0.63362 0.78181 0.46644 0.09000
C 	C 	0.36732 0.29227 0.53274 0.09000
C 	C 	0.67161 0.83262 0.40830 -0.05400
C 	C 	0.32871 0.33301 0.59139 -0.05400
C 	C 	0.56710 0.76980 0.42962 -0.09100
C 	C 	0.43394 0.28503 0.56968 -0.09200
C 	C 	0.53763 0.79953 0.33461 0.03600
C 	C 	0.46298 0.31042 0.66512 0.03700
C 	C 	0.64006 0.86768 0.31231 0.02100
C 	C 	0.35976 0.36358 0.68786 0.02200
H 	H 	0.87472 0.93214 0.38770 0.04100
H 	H 	0.12449 0.40400 0.61271 0.04200
H 	H 	0.66529 0.90334 0.26293 0.03400
H 	H 	0.33411 0.39265 0.73751 0.03400
H 	H 	0.48663 0.78012 0.30639 0.03200
H 	H 	0.51418 0.29559 0.69325 0.03200
H 	H 	0.63330 0.67854 0.60136 0.08500
H 	H 	0.36888 0.20224 0.39628 0.08600
H 	H 	0.96817 0.94471 0.52382 0.04700
H 	H 	0.03103 0.41741 0.47651 0.04800
H 	H 	0.01608 0.94170 0.69438 0.03200
H 	H 	0.98327 0.42312 0.30589 0.03200
H 	H 	0.83388 0.84919 0.73357 0.05600
H 	H 	0.16670 0.36210 0.26613 0.05600
H 	H 	0.76298 0.90807 0.31857 0.04900
H 	H 	0.23641 0.38687 0.68190 0.05000
H 	H 	0.53803 0.72975 0.47375 0.05800
H 	H 	0.46350 0.25267 0.52514 0.05800
O 	O 	0.03645 0.23307 0.13013 -0.45900
O 	O 	0.96355 0.73307 0.86987 -0.46000
O 	O 	0.91247 0.56057 0.00679 -0.46600
O 	O 	0.08753 0.06057 0.99321 -0.46600
C 	C 	0.88754 0.39179 0.00532 0.28300
C 	C 	0.11245 0.89175 0.99468 0.28200
O 	O 	0.03292 0.56294 0.13805 -0.47000
O 	O 	0.96708 0.06294 0.86195 -0.46700
O 	O 	0.08479 0.73050 0.00209 -0.45400
O 	O 	0.91521 0.23050 0.99791 -0.45200
C 	C 	0.04493 0.39433 0.17451 0.34000
C 	C 	0.95505 0.89459 0.82546 0.33700
O 	O 	0.01682 0.39617 0.95526 -0.61900
O 	O 	0.98318 0.89617 0.04474 -0.62200
V 	V 	0.99688 0.67209 0.00830 1.79100
V 	V 	0.00312 0.17209 0.99170 1.79100
O 	O 	0.75166 0.63426 0.68052 -0.29400
H 	H 	0.79029 0.56641 0.67762 0.15500
O 	O 	0.25101 0.15234 0.31566 -0.29400
H 	H 	0.21303 0.07957 0.31711 0.15600
O 	O 	0.19759 0.02361 0.93410 -0.26100
H 	H 	0.16173 0.10963 0.90686 0.15600
O 	O 	0.80229 0.52375 0.06562 -0.26100
H 	H 	0.83810 0.60985 0.09273 0.15500
