data_crystal

_cell_length_a 7.22262
_cell_length_b 12.12553
_cell_length_c 29.11042
_cell_angle_alpha 89.99884
_cell_angle_beta  89.95496
_cell_angle_gamma 90.24603

_symmetry_space_group_name_	'P 1'
_symmetry_space_group_name_H-M	'P 1'

loop_
_symmetry_equiv_pos_as_xyz
  x,y,z

loop_
_atom_site_label
_atom_site_type_symbol
_atom_site_fract_x
_atom_site_fract_y
_atom_site_fract_z
_atom_site_charge
O 	O 	0.64717 0.84918 0.20122 -0.46100
O 	O 	0.35283 0.15082 0.79878 -0.46100
O 	O 	0.35283 0.15082 0.70122 -0.46100
O 	O 	0.64717 0.84918 0.29878 -0.46100
O 	O 	0.14717 0.65082 0.29878 -0.46800
O 	O 	0.85283 0.34918 0.70122 -0.46800
O 	O 	0.85283 0.34918 0.79878 -0.46800
O 	O 	0.14717 0.65082 0.20122 -0.46800
O 	O 	0.31743 0.86221 0.29845 -0.46600
O 	O 	0.68257 0.13779 0.70155 -0.46600
O 	O 	0.68257 0.13779 0.79845 -0.46500
O 	O 	0.31743 0.86221 0.20155 -0.46500
O 	O 	0.81743 0.63779 0.20155 -0.46200
O 	O 	0.18257 0.36221 0.79845 -0.46200
O 	O 	0.18257 0.36221 0.70155 -0.46200
O 	O 	0.81743 0.63779 0.29845 -0.46200
H 	H 	0.96409 0.22410 0.45527 0.06100
H 	H 	0.03591 0.77590 0.54473 0.06100
H 	H 	0.02824 0.77614 0.95519 0.06100
H 	H 	0.97176 0.22386 0.04481 0.06100
H 	H 	0.54484 0.27521 0.04500 0.06100
H 	H 	0.45516 0.72479 0.95500 0.06100
H 	H 	0.46352 0.72438 0.54503 0.06100
H 	H 	0.53648 0.27562 0.45497 0.06100
C 	C 	0.48601 0.88779 0.31335 0.43100
C 	C 	0.51399 0.11221 0.68664 0.43100
C 	C 	0.51388 0.11221 0.81335 0.43100
C 	C 	0.48612 0.88779 0.18665 0.43100
C 	C 	0.98548 0.61217 0.18663 0.43400
C 	C 	0.01452 0.38783 0.81337 0.43400
C 	C 	0.01463 0.38784 0.68663 0.43400
C 	C 	0.98537 0.61216 0.31337 0.43400
H 	H 	0.95862 0.26012 0.37376 0.13800
H 	H 	0.04138 0.73988 0.62624 0.13800
H 	H 	0.03380 0.74011 0.87367 0.13800
H 	H 	0.96620 0.25989 0.12632 0.13800
H 	H 	0.54124 0.23908 0.12653 0.13800
H 	H 	0.45876 0.76092 0.87347 0.13800
H 	H 	0.46713 0.76050 0.62655 0.13800
H 	H 	0.53287 0.23950 0.37345 0.13800
H 	H 	0.98581 0.33775 0.59962 0.02000
H 	H 	0.01419 0.66225 0.40038 0.02000
H 	H 	0.01057 0.66245 0.09958 0.02000
H 	H 	0.98943 0.33755 0.90042 0.02000
H 	H 	0.52711 0.16220 0.90054 0.01800
H 	H 	0.47289 0.83780 0.09946 0.01800
H 	H 	0.47695 0.83757 0.40056 0.01800
H 	H 	0.52305 0.16243 0.59944 0.01800
O 	O 	0.48063 0.68063 0.25000 -0.58900
O 	O 	0.51937 0.31937 0.75000 -0.58900
O 	O 	0.98063 0.81937 0.25000 -0.58500
O 	O 	0.01937 0.18063 0.75000 -0.58500
V 	V 	0.20580 0.76286 0.25000 1.79900
V 	V 	0.79420 0.23714 0.75000 1.79900
V 	V 	0.70580 0.73714 0.25000 1.80000
V 	V 	0.29420 0.26286 0.75000 1.80000
H 	H 	0.97516 0.28331 0.53270 0.03900
H 	H 	0.02483 0.71669 0.46730 0.03900
H 	H 	0.01918 0.71692 0.03264 0.03900
H 	H 	0.98082 0.28308 0.96736 0.03900
H 	H 	0.53580 0.21636 0.96751 0.04000
H 	H 	0.46420 0.78364 0.03249 0.04000
H 	H 	0.47038 0.78332 0.46753 0.04000
H 	H 	0.52962 0.21668 0.53247 0.04000
C 	C 	0.99104 0.53400 0.35170 -0.21900
C 	C 	0.00896 0.46600 0.64830 -0.21900
C 	C 	0.00842 0.46595 0.85170 -0.21900
C 	C 	0.99158 0.53405 0.14830 -0.21900
C 	C 	0.49548 0.96573 0.14829 -0.22400
C 	C 	0.50452 0.03427 0.85171 -0.22400
C 	C 	0.50508 0.03427 0.64829 -0.22400
C 	C 	0.49492 0.96573 0.35171 -0.22400
C 	C 	0.97134 0.34771 0.38061 -0.22200
C 	C 	0.02866 0.65229 0.61939 -0.22200
C 	C 	0.02358 0.65241 0.88056 -0.22200
C 	C 	0.97642 0.34759 0.11944 -0.22200
C 	C 	0.52607 0.15167 0.11957 -0.22400
C 	C 	0.47393 0.84833 0.88043 -0.22400
C 	C 	0.47953 0.84807 0.61959 -0.22400
C 	C 	0.52046 0.15193 0.38041 -0.22400
C 	C 	0.97449 0.42080 0.34373 0.43500
C 	C 	0.02551 0.57920 0.65627 0.43500
C 	C 	0.02173 0.57928 0.84369 0.43500
C 	C 	0.97827 0.42072 0.15631 0.43500
C 	C 	0.51501 0.07869 0.15641 0.43600
C 	C 	0.48499 0.92131 0.84359 0.43600
C 	C 	0.48917 0.92112 0.65642 0.43600
C 	C 	0.51083 0.07888 0.34358 0.43600
C 	C 	0.00324 0.57411 0.39670 0.07500
C 	C 	0.99676 0.42589 0.60330 0.07500
C 	C 	0.99806 0.42578 0.89672 0.07500
C 	C 	0.00194 0.57422 0.10328 0.07500
C 	C 	0.48755 0.92574 0.10322 0.08300
C 	C 	0.51245 0.07426 0.89677 0.08300
C 	C 	0.51097 0.07436 0.60322 0.08300
C 	C 	0.48903 0.92564 0.39678 0.08300
C 	C 	0.99721 0.50174 0.43495 -0.06700
C 	C 	0.00279 0.49827 0.56505 -0.06700
C 	C 	0.00250 0.49823 0.93495 -0.06700
C 	C 	0.99750 0.50177 0.06505 -0.06700
C 	C 	0.49936 0.99807 0.06505 -0.07300
C 	C 	0.50064 0.00193 0.93495 -0.07300
C 	C 	0.50094 0.00194 0.56505 -0.07300
C 	C 	0.49906 0.99806 0.43495 -0.07300
C 	C 	0.98186 0.38697 0.42591 0.12100
C 	C 	0.01815 0.61303 0.57409 0.12100
C 	C 	0.01466 0.61311 0.92588 0.12100
C 	C 	0.98534 0.38689 0.07412 0.12100
C 	C 	0.51847 0.11259 0.07421 0.12300
C 	C 	0.48153 0.88741 0.92579 0.12300
C 	C 	0.48534 0.88724 0.57422 0.12300
C 	C 	0.51466 0.11276 0.42578 0.12300
C 	C 	0.00408 0.53924 0.48161 0.01500
C 	C 	0.99592 0.46076 0.51839 0.01500
C 	C 	0.99689 0.46071 0.98163 0.01500
C 	C 	0.00311 0.53929 0.01837 0.01500
C 	C 	0.49340 0.96078 0.01835 0.01700
C 	C 	0.50660 0.03922 0.98165 0.01700
C 	C 	0.50553 0.03928 0.51834 0.01700
C 	C 	0.49447 0.96072 0.48166 0.01700
C 	C 	0.98194 0.34752 0.50725 -0.02200
C 	C 	0.01806 0.65248 0.49275 -0.02200
C 	C 	0.01401 0.65263 0.00721 -0.02200
C 	C 	0.98599 0.34737 0.99279 -0.02200
C 	C 	0.52496 0.15220 0.99290 -0.02200
C 	C 	0.47504 0.84780 0.00710 -0.02200
C 	C 	0.47946 0.84758 0.49291 -0.02200
C 	C 	0.52053 0.15242 0.50709 -0.02200
C 	C 	0.97548 0.31184 0.46203 -0.08700
C 	C 	0.02452 0.68816 0.53797 -0.08700
C 	C 	0.01927 0.68832 0.96197 -0.08700
C 	C 	0.98073 0.31168 0.03803 -0.08700
C 	C 	0.53041 0.18767 0.03816 -0.08800
C 	C 	0.46959 0.81233 0.96184 -0.08800
C 	C 	0.47531 0.81206 0.53818 -0.08800
C 	C 	0.52468 0.18794 0.46182 -0.08800
F 	F 	0.03940 0.61882 0.69973 -0.39600
F 	F 	0.96060 0.38118 0.30027 -0.39600
F 	F 	0.96639 0.38101 0.19980 -0.39600
F 	F 	0.03361 0.61899 0.80020 -0.39600
F 	F 	0.47634 0.88181 0.80003 -0.39700
F 	F 	0.52366 0.11819 0.19997 -0.39700
F 	F 	0.51719 0.11850 0.30001 -0.39700
F 	F 	0.48281 0.88150 0.69998 -0.39700
