data_crystal

_cell_length_a 28.19819
_cell_length_b 7.19624
_cell_length_c 17.19480
_cell_angle_alpha 90.08282
_cell_angle_beta  101.95361
_cell_angle_gamma 89.96518

_symmetry_space_group_name_	'P 1'
_symmetry_space_group_name_H-M	'P 1'

loop_
_symmetry_equiv_pos_as_xyz
  x,y,z

loop_
_atom_site_label
_atom_site_type_symbol
_atom_site_fract_x
_atom_site_fract_y
_atom_site_fract_z
_atom_site_charge
O 	O 	0.00070 0.43651 0.85792 -0.46500
O 	O 	0.99930 0.56349 0.14208 -0.46500
O 	O 	0.99930 0.93651 0.64208 -0.46600
O 	O 	0.00070 0.06349 0.35792 -0.46700
O 	O 	0.93008 0.76638 0.72189 -0.47900
O 	O 	0.06992 0.23362 0.27811 -0.47900
O 	O 	0.06992 0.26638 0.77811 -0.47800
O 	O 	0.93008 0.73362 0.22189 -0.47800
C 	C 	0.91059 0.59758 0.70891 0.34800
C 	C 	0.08941 0.40243 0.29107 0.34800
C 	C 	0.08940 0.09755 0.79124 0.34600
C 	C 	0.91060 0.90245 0.20878 0.34600
O 	O 	0.99618 0.76623 0.86231 -0.47000
O 	O 	0.00382 0.23377 0.13769 -0.47000
O 	O 	0.00382 0.26623 0.63769 -0.47000
O 	O 	0.99618 0.73377 0.36231 -0.47000
O 	O 	0.06587 0.93646 0.78350 -0.47200
O 	O 	0.93413 0.06354 0.21650 -0.47200
O 	O 	0.93413 0.43646 0.71650 -0.47300
O 	O 	0.06587 0.56354 0.28350 -0.47300
C 	C 	0.99849 0.59650 0.89450 0.35000
C 	C 	0.00151 0.40349 0.10550 0.35000
C 	C 	0.00151 0.09639 0.60554 0.35000
C 	C 	0.99849 0.90361 0.39446 0.35000
O 	O 	0.02279 0.60302 0.72398 -0.60400
O 	O 	0.97721 0.39698 0.27602 -0.60400
O 	O 	0.97721 0.10302 0.77602 -0.60400
O 	O 	0.02279 0.89698 0.22398 -0.60400
V 	V 	0.99577 0.87790 0.75483 1.80000
V 	V 	0.00423 0.12210 0.24517 1.80000
V 	V 	0.00423 0.37790 0.74517 1.80000
V 	V 	0.99577 0.62210 0.25483 1.80000
C 	C 	0.00171 0.08259 0.51961 -0.08600
C 	C 	0.99829 0.91741 0.48039 -0.08600
C 	C 	0.99830 0.58266 0.98047 -0.08600
C 	C 	0.00170 0.41734 0.01953 -0.08600
H 	H 	0.00450 0.21138 0.48800 0.09200
H 	H 	0.99550 0.78862 0.51200 0.09200
H 	H 	0.99553 0.71148 0.01223 0.09200
H 	H 	0.00447 0.28852 0.98777 0.09200
C 	C 	0.68290 0.91705 0.02812 0.20000
C 	C 	0.31714 0.08435 0.97189 0.20000
C 	C 	0.31648 0.44624 0.47245 0.20100
C 	C 	0.68345 0.55691 0.52758 0.20100
O 	O 	0.71199 0.88303 0.97652 -0.16800
O 	O 	0.28811 0.12042 0.02339 -0.16700
O 	O 	0.28677 0.44086 0.52466 -0.16800
O 	O 	0.71309 0.56497 0.47531 -0.16800
N 	N 	0.70278 0.94095 0.10716 -0.16200
N 	N 	0.29720 0.05851 0.89299 -0.16200
N 	N 	0.29730 0.43910 0.39249 -0.16200
N 	N 	0.70272 0.56107 0.60755 -0.16200
C 	C 	0.67402 0.97193 0.16101 0.19700
C 	C 	0.32589 0.02537 0.83923 0.19700
C 	C 	0.32681 0.43854 0.33844 0.19600
C 	C 	0.67330 0.55864 0.66172 0.19600
C 	C 	0.77697 0.77229 0.16731 -0.06800
C 	C 	0.22305 0.22737 0.83284 -0.06800
C 	C 	0.22289 0.27004 0.33288 -0.06900
C 	C 	0.77712 0.72995 0.66720 -0.06900
C 	C 	0.82739 0.76024 0.19123 0.03800
C 	C 	0.17264 0.23956 0.80885 0.03800
C 	C 	0.17246 0.25853 0.30924 0.03800
C 	C 	0.82755 0.74142 0.69086 0.03800
C 	C 	0.83460 0.07811 0.14955 0.00500
C 	C 	0.16535 0.92185 0.85066 0.00500
C 	C 	0.16564 0.57924 0.34792 0.00300
C 	C 	0.83437 0.42099 0.65179 0.00300
C 	C 	0.78389 0.09205 0.12479 0.04200
C 	C 	0.21605 0.90776 0.87551 0.04200
C 	C 	0.21637 0.59262 0.37204 0.04000
C 	C 	0.78364 0.40765 0.62762 0.04000
C 	C 	0.75479 0.93635 0.13388 0.10600
C 	C 	0.24519 0.06330 0.86633 0.10600
C 	C 	0.24530 0.43510 0.36488 0.10800
C 	C 	0.75471 0.56504 0.63503 0.10800
C 	C 	0.60210 0.96535 0.05430 0.06100
C 	C 	0.39788 0.03376 0.94578 0.06100
C 	C 	0.39795 0.46416 0.44597 0.06000
C 	C 	0.60206 0.53617 0.55422 0.06000
C 	C 	0.63233 0.92881 0.00031 -0.06700
C 	C 	0.36772 0.07245 0.99967 -0.06600
C 	C 	0.36698 0.46033 0.50052 -0.06700
C 	C 	0.63295 0.54307 0.49956 -0.06700
C 	C 	0.61158 0.90602 0.91980 0.01100
C 	C 	0.38854 0.09746 0.08003 0.01100
C 	C 	0.38689 0.47212 0.58179 0.01100
C 	C 	0.61292 0.53501 0.41825 0.01200
C 	C 	0.62330 0.98563 0.13557 -0.07000
C 	C 	0.37661 0.01145 0.86465 -0.07000
C 	C 	0.37754 0.45075 0.36415 -0.06800
C 	C 	0.62256 0.54642 0.63610 -0.06800
C 	C 	0.85687 0.91324 0.18294 -0.07800
C 	C 	0.14312 0.08669 0.81716 -0.07800
C 	C 	0.14315 0.41303 0.31641 -0.07700
C 	C 	0.85686 0.58703 0.68353 -0.07700
H 	H 	0.85679 0.19728 0.14268 0.07000
H 	H 	0.14312 0.80281 0.85757 0.07000
H 	H 	0.14369 0.70008 0.35358 0.07000
H 	H 	0.85633 0.30028 0.64599 0.07000
H 	H 	0.63392 0.87679 0.87700 0.05500
H 	H 	0.36627 0.12899 0.12270 0.05500
H 	H 	0.36393 0.46913 0.62510 0.05500
H 	H 	0.63579 0.54155 0.37483 0.05500
C 	C 	0.47894 0.97746 0.91759 0.01700
C 	C 	0.52101 0.02055 0.08253 0.01700
C 	C 	0.52023 0.51320 0.58325 0.01600
C 	C 	0.47982 0.48583 0.41704 0.01600
C 	C 	0.46987 0.03985 0.05520 0.01600
C 	C 	0.53014 0.96002 0.94481 0.01600
C 	C 	0.53091 0.50680 0.44412 0.01700
C 	C 	0.46905 0.49506 0.55610 0.01700
C 	C 	0.44912 0.01706 0.97297 -0.02400
C 	C 	0.55085 0.98193 0.02710 -0.02400
C 	C 	0.55084 0.51875 0.52708 -0.02300
C 	C 	0.44917 0.48165 0.47316 -0.02300
C 	C 	0.45619 0.95716 0.83640 -0.05500
C 	C 	0.54365 0.03773 0.16390 -0.05500
C 	C 	0.54219 0.52655 0.66507 -0.05400
C 	C 	0.45799 0.46771 0.33535 -0.05400
C 	C 	0.40624 0.97392 0.81075 0.01100
C 	C 	0.59359 0.02065 0.18959 0.01100
C 	C 	0.59216 0.54244 0.69069 0.00900
C 	C 	0.40805 0.45118 0.30970 0.00900
O 	O 	0.30538 0.00335 0.76162 -0.17700
O 	O 	0.69447 0.99204 0.23875 -0.17600
O 	O 	0.69308 0.56541 0.74017 -0.17600
O 	O 	0.30713 0.42887 0.26002 -0.17600
C 	C 	0.56171 0.92083 0.89254 -0.05300
C 	C 	0.43840 0.08212 0.10729 -0.05300
C 	C 	0.43670 0.48918 0.60910 -0.05300
C 	C 	0.56312 0.51747 0.39099 -0.05300
H 	H 	0.15685 0.36858 0.78332 0.05300
H 	H 	0.84321 0.63121 0.21670 0.05300
H 	H 	0.84352 0.87128 0.71522 0.05200
H 	H 	0.15649 0.12855 0.28503 0.05300
H 	H 	0.24513 0.34680 0.82588 0.08700
H 	H 	0.75493 0.65275 0.17423 0.08700
H 	H 	0.75525 0.85064 0.67325 0.08900
H 	H 	0.24476 0.14927 0.32697 0.08900
H 	H 	0.39088 0.95631 0.74799 0.05000
H 	H 	0.60887 0.03593 0.25249 0.05000
H 	H 	0.60690 0.55116 0.75402 0.04900
H 	H 	0.39340 0.43893 0.24646 0.04900
H 	H 	0.47577 0.92776 0.79037 0.04600
H 	H 	0.52396 0.06398 0.21008 0.04600
H 	H 	0.52196 0.52473 0.71169 0.04500
H 	H 	0.47837 0.46486 0.28894 0.04500
H 	H 	0.54932 0.90081 0.82961 0.04600
H 	H 	0.45090 0.10509 0.17002 0.04600
H 	H 	0.44841 0.49777 0.67263 0.04700
H 	H 	0.55124 0.51372 0.32738 0.04700
N 	N 	0.76289 0.26376 0.09056 -0.00900
O 	O 	0.71876 0.31007 0.09390 -0.09600
O 	O 	0.78900 0.38116 0.05999 -0.09700
N 	N 	0.23698 0.73611 0.90993 -0.00900
O 	O 	0.21077 0.61872 0.94027 -0.09700
O 	O 	0.28120 0.68989 0.90707 -0.09600
N 	N 	0.23773 0.76618 0.40321 -0.00900
O 	O 	0.28069 0.81410 0.39392 -0.09700
O 	O 	0.21284 0.88372 0.43627 -0.09700
N 	N 	0.76229 0.23430 0.59614 -0.00900
O 	O 	0.78729 0.11669 0.56332 -0.09700
O 	O 	0.71921 0.18657 0.60491 -0.09700
