data_crystal

_cell_length_a 27.78726
_cell_length_b 8.67535
_cell_length_c 7.43823
_cell_angle_alpha 103.05568
_cell_angle_beta  93.88393
_cell_angle_gamma 92.43751

_symmetry_space_group_name_	'P 1'
_symmetry_space_group_name_H-M	'P 1'

loop_
_symmetry_equiv_pos_as_xyz
  x,y,z

loop_
_atom_site_label
_atom_site_type_symbol
_atom_site_fract_x
_atom_site_fract_y
_atom_site_fract_z
_atom_site_charge
C 	C 	0.49854 0.19965 0.45315 0.34200
C 	C 	0.50146 0.80035 0.54685 0.34200
C 	C 	0.10221 0.49858 0.51493 0.06300
C 	C 	0.89779 0.50142 0.48507 0.06300
C 	C 	0.12516 0.35430 0.48158 -0.06900
C 	C 	0.87484 0.64570 0.51841 -0.06900
C 	C 	0.09729 0.21147 0.44168 0.01000
C 	C 	0.90271 0.78852 0.55832 0.01000
C 	C 	0.13071 0.64214 0.55468 -0.06800
C 	C 	0.86929 0.35786 0.44532 -0.06800
C 	C 	0.35472 0.49843 0.50999 -0.05300
C 	C 	0.64528 0.50157 0.49001 -0.05300
C 	C 	0.97152 0.35369 0.45778 0.01700
C 	C 	0.02848 0.64631 0.54222 0.01700
C 	C 	0.97720 0.64702 0.53407 0.01700
C 	C 	0.02280 0.35298 0.46593 0.01700
C 	C 	0.94907 0.50071 0.49222 -0.02400
C 	C 	0.05093 0.49929 0.50778 -0.02400
C 	C 	0.94157 0.21187 0.41593 -0.05400
C 	C 	0.05843 0.78813 0.58407 -0.05400
C 	C 	0.89161 0.21433 0.41050 0.01200
C 	C 	0.10839 0.78567 0.58950 0.01200
C 	C 	0.40752 0.49955 0.50297 0.31200
C 	C 	0.59248 0.50045 0.49703 0.31200
C 	C 	0.04724 0.21041 0.43378 -0.05400
C 	C 	0.95276 0.78959 0.56622 -0.05400
C 	C 	0.49784 0.03167 0.42681 -0.09400
C 	C 	0.50216 0.96833 0.57319 -0.09400
C 	C 	0.17578 0.35626 0.48788 0.19700
C 	C 	0.82422 0.64374 0.51211 0.19700
C 	C 	0.18119 0.63881 0.55772 0.20400
C 	C 	0.81881 0.36119 0.44228 0.20400
C 	C 	0.28408 0.53414 0.68758 0.13800
C 	C 	0.71592 0.46586 0.31242 0.13800
C 	C 	0.33418 0.53448 0.68107 -0.04000
C 	C 	0.66582 0.46553 0.31893 -0.04000
C 	C 	0.32437 0.46053 0.34541 0.02300
C 	C 	0.67563 0.53947 0.65459 0.02300
C 	C 	0.27441 0.45878 0.35187 -0.05100
C 	C 	0.72559 0.54121 0.64812 -0.05100
C 	C 	0.25406 0.49637 0.52215 0.07700
C 	C 	0.74594 0.50363 0.47785 0.07700
Cu	Cu	0.50538 0.51738 0.68438 0.92600
Cu	Cu	0.49462 0.48262 0.31562 0.92600
H 	H 	0.33915 0.43147 0.21165 0.06200
H 	H 	0.66085 0.56852 0.78835 0.06200
H 	H 	0.46218 0.37823 0.94864 0.09900
H 	H 	0.53782 0.62177 0.05136 0.09900
H 	H 	0.25130 0.42872 0.22436 0.09000
H 	H 	0.74870 0.57128 0.77564 0.09000
H 	H 	0.11407 0.09893 0.41519 0.05000
H 	H 	0.88593 0.90107 0.58480 0.05000
H 	H 	0.64307 0.43624 0.19035 0.08600
H 	H 	0.35693 0.56377 0.80965 0.08600
H 	H 	0.87047 0.10232 0.37831 0.05500
H 	H 	0.12954 0.89768 0.62169 0.05500
H 	H 	0.95527 0.09557 0.38603 0.04600
H 	H 	0.04473 0.90442 0.61398 0.04600
H 	H 	0.02901 0.09457 0.40155 0.04500
H 	H 	0.97099 0.90543 0.59845 0.04500
H 	H 	0.49378 0.95982 0.28585 0.09500
H 	H 	0.50622 0.04018 0.71415 0.09500
N 	N 	0.20257 0.49720 0.52491 -0.15500
N 	N 	0.79743 0.50280 0.47509 -0.15500
N 	N 	0.48651 0.45643 0.03851 -0.17900
N 	N 	0.51349 0.54357 0.96149 -0.17900
O 	O 	0.50350 0.28612 0.61978 -0.37800
O 	O 	0.49650 0.71388 0.38022 -0.37800
O 	O 	0.49441 0.25678 0.30836 -0.37700
O 	O 	0.50559 0.74322 0.69164 -0.37700
O 	O 	0.43481 0.51470 0.65569 -0.37000
O 	O 	0.56519 0.48530 0.34431 -0.37000
O 	O 	0.42572 0.48535 0.34428 -0.36700
O 	O 	0.57428 0.51465 0.65572 -0.36700
O 	O 	0.19811 0.21860 0.45708 -0.17100
O 	O 	0.80190 0.78139 0.54292 -0.17100
O 	O 	0.79127 0.22422 0.40830 -0.16000
O 	O 	0.20873 0.77578 0.59170 -0.16000
Cl	Cl	0.74038 0.41977 0.09612 -0.30200
Cl	Cl	0.25962 0.58023 0.90388 -0.30200
