data_crystal

_cell_length_a 7.25349
_cell_length_b 15.29175
_cell_length_c 22.31180
_cell_angle_alpha 90.00036
_cell_angle_beta  87.93658
_cell_angle_gamma 90.00026

_symmetry_space_group_name_	'P 1'
_symmetry_space_group_name_H-M	'P 1'

loop_
_symmetry_equiv_pos_as_xyz
  x,y,z

loop_
_atom_site_label
_atom_site_type_symbol
_atom_site_fract_x
_atom_site_fract_y
_atom_site_fract_z
_atom_site_charge
O 	O 	0.39081 0.84481 0.44734 -0.47100
O 	O 	0.10919 0.15519 0.94734 -0.46400
O 	O 	0.89081 0.65519 0.55266 -0.46500
O 	O 	0.60919 0.34481 0.05266 -0.47000
O 	O 	0.72055 0.65582 0.44042 -0.47100
O 	O 	0.77945 0.34418 0.94042 -0.47300
O 	O 	0.22055 0.84418 0.55958 -0.47300
O 	O 	0.27945 0.15582 0.05958 -0.47100
C 	C 	0.55501 0.62792 0.42558 0.33100
C 	C 	0.95076 0.37230 0.92618 0.33100
C 	C 	0.04924 0.87230 0.57382 0.33200
C 	C 	0.44499 0.12793 0.07442 0.33100
O 	O 	0.72053 0.84413 0.44042 -0.46900
O 	O 	0.77947 0.15587 0.94042 -0.47200
O 	O 	0.22053 0.65587 0.55958 -0.47300
O 	O 	0.27947 0.34413 0.05958 -0.46900
O 	O 	0.89083 0.84481 0.55266 -0.46600
O 	O 	0.60917 0.15519 0.05266 -0.46800
O 	O 	0.39083 0.65519 0.44734 -0.46900
O 	O 	0.10917 0.34481 0.94734 -0.46500
C 	C 	0.55452 0.87164 0.42549 0.33200
C 	C 	0.94969 0.12847 0.92572 0.33000
C 	C 	0.05031 0.62847 0.57428 0.33200
C 	C 	0.44548 0.37163 0.07451 0.33200
O 	O 	0.55731 0.74998 0.53682 -0.61400
O 	O 	0.94269 0.25002 0.03682 -0.61800
O 	O 	0.05731 0.75002 0.46318 -0.62000
O 	O 	0.44269 0.24998 0.96318 -0.61400
V 	V 	0.83216 0.74998 0.49317 1.79500
V 	V 	0.66784 0.25002 0.99317 1.79400
V 	V 	0.33216 0.75002 0.50683 1.79400
V 	V 	0.16784 0.24998 0.00683 1.79400
C 	C 	0.09143 0.59225 0.86684 -0.07300
C 	C 	0.70113 0.41809 0.35162 -0.07300
C 	C 	0.29888 0.91809 0.14838 -0.07200
C 	C 	0.90856 0.09224 0.63316 -0.07300
H 	H 	0.06120 0.53313 0.95356 0.02700
H 	H 	0.73094 0.47666 0.43765 0.03000
H 	H 	0.26908 0.97666 0.06235 0.03000
H 	H 	0.93874 0.03311 0.54644 0.02700
H 	H 	0.14867 0.71645 0.78480 0.03900
H 	H 	0.72926 0.29807 0.26655 0.04000
H 	H 	0.27076 0.79807 0.23345 0.03900
H 	H 	0.85137 0.21645 0.71520 0.03900
H 	H 	0.14730 0.65156 0.88510 0.04100
H 	H 	0.78683 0.36307 0.36274 0.04300
H 	H 	0.21319 0.86307 0.13726 0.04300
H 	H 	0.85267 0.15155 0.61491 0.04100
C 	C 	0.97413 0.44588 0.88409 -0.08400
C 	C 	0.56209 0.55593 0.38148 -0.08500
C 	C 	0.43791 0.05594 0.11852 -0.08200
C 	C 	0.02587 0.94588 0.61591 -0.08400
C 	C 	0.02448 0.47114 0.59187 -0.02200
C 	C 	0.36822 0.52360 0.09752 -0.02100
C 	C 	0.63177 0.02361 0.40248 -0.02000
C 	C 	0.97548 0.97114 0.90813 -0.02400
C 	C 	0.03568 0.39688 0.62806 0.03700
C 	C 	0.36128 0.59772 0.13437 0.03600
C 	C 	0.63871 0.09773 0.36564 0.03600
C 	C 	0.96429 0.89688 0.87194 0.03800
C 	C 	0.02993 0.40626 0.69059 -0.06700
C 	C 	0.40945 0.58978 0.19447 -0.06600
C 	C 	0.59055 0.08979 0.30553 -0.06500
C 	C 	0.97007 0.90627 0.80941 -0.06600
C 	C 	0.02936 0.48967 0.71747 0.01200
C 	C 	0.47826 0.51045 0.21728 0.01000
C 	C 	0.52174 0.01045 0.28272 0.01000
C 	C 	0.97067 0.98967 0.78253 0.00800
C 	C 	0.05053 0.56433 0.67948 0.04000
C 	C 	0.50412 0.43863 0.17672 0.04100
C 	C 	0.49589 0.93863 0.32328 0.04000
C 	C 	0.94949 0.06434 0.82052 0.04100
C 	C 	0.02188 0.50065 0.78103 -0.02000
C 	C 	0.53085 0.50146 0.27828 -0.02000
C 	C 	0.46915 0.00147 0.22173 -0.01800
C 	C 	0.97815 0.00065 0.71897 -0.01800
C 	C 	0.07332 0.58262 0.80491 0.03800
C 	C 	0.62867 0.42514 0.29461 0.03700
C 	C 	0.37134 0.92514 0.20539 0.03400
C 	C 	0.92671 0.08262 0.69509 0.03700
C 	C 	0.10856 0.65382 0.76676 -0.05100
C 	C 	0.65646 0.35669 0.25379 -0.04900
C 	C 	0.34355 0.85669 0.24621 -0.04800
C 	C 	0.89147 0.15382 0.73324 -0.05000
C 	C 	0.08807 0.64601 0.70520 -0.04000
C 	C 	0.58980 0.36201 0.19640 -0.04300
C 	C 	0.41021 0.86201 0.30360 -0.04300
C 	C 	0.91197 0.14601 0.79480 -0.04100
C 	C 	0.96700 0.43313 0.82177 0.00500
C 	C 	0.49350 0.56566 0.32355 0.00300
C 	C 	0.50650 0.06566 0.17646 0.00200
C 	C 	0.03304 0.93313 0.67823 0.00400
C 	C 	0.04247 0.52465 0.90594 0.02200
C 	C 	0.66923 0.48286 0.39434 0.02000
C 	C 	0.33078 0.98286 0.10566 0.01700
C 	C 	0.95750 0.02464 0.59406 0.02200
C 	C 	0.03858 0.55452 0.61649 -0.07800
C 	C 	0.44335 0.44535 0.11721 -0.08100
C 	C 	0.55665 0.94535 0.38280 -0.08200
C 	C 	0.96142 0.05452 0.88351 -0.07700
H 	H 	0.91961 0.37045 0.80616 0.03300
H 	H 	0.41566 0.62412 0.31479 0.03500
H 	H 	0.58432 0.12413 0.18522 0.03600
H 	H 	0.08044 0.87046 0.69384 0.03300
H 	H 	0.01533 0.46444 0.54374 0.04100
H 	H 	0.31960 0.52621 0.05227 0.04300
H 	H 	0.68038 0.02621 0.44773 0.04300
H 	H 	0.98460 0.96443 0.95625 0.04100
H 	H 	0.03553 0.34787 0.71759 0.04700
H 	H 	0.40091 0.64795 0.22173 0.04500
H 	H 	0.59908 0.14796 0.27827 0.04500
H 	H 	0.96448 0.84787 0.78240 0.04600
H 	H 	0.10965 0.70361 0.67763 0.04600
H 	H 	0.61123 0.30636 0.16700 0.05200
H 	H 	0.38879 0.80636 0.33300 0.05200
H 	H 	0.89038 0.20361 0.82237 0.04600
C 	C 	0.05071 0.30726 0.60038 -0.11100
C 	C 	0.19947 0.30164 0.54980 -0.01700
C 	C 	0.21975 0.20822 0.52665 -0.16400
H 	H 	0.30358 0.16879 0.55739 0.06400
H 	H 	0.08336 0.17696 0.52285 0.06000
H 	H 	0.28609 0.20914 0.48115 0.06000
H 	H 	0.16120 0.34347 0.51154 0.02800
H 	H 	0.33407 0.32461 0.56615 0.03100
H 	H 	0.08395 0.25839 0.63519 0.05300
H 	H 	0.91535 0.29061 0.58242 0.04600
C 	C 	0.31044 0.68724 0.11093 -0.11100
C 	C 	0.30641 0.69381 0.04210 -0.01900
C 	C 	0.31367 0.78822 0.02029 -0.16300
H 	H 	0.18147 0.82190 0.03171 0.05800
H 	H 	0.43016 0.82363 0.04022 0.06100
H 	H 	0.33842 0.78914 0.97101 0.05600
H 	H 	0.42596 0.65901 0.02116 0.02800
H 	H 	0.17972 0.66208 0.02640 0.02500
H 	H 	0.17383 0.70640 0.13091 0.05000
H 	H 	0.41534 0.73408 0.12681 0.05100
C 	C 	0.68954 0.18725 0.38907 -0.11100
C 	C 	0.69353 0.19382 0.45790 -0.01900
C 	C 	0.68627 0.28823 0.47972 -0.16300
H 	H 	0.81847 0.32191 0.46829 0.05800
H 	H 	0.56978 0.32363 0.45978 0.06000
H 	H 	0.66152 0.28915 0.52899 0.05600
H 	H 	0.57397 0.15902 0.47885 0.02800
H 	H 	0.82022 0.16209 0.47361 0.02500
H 	H 	0.82616 0.20640 0.36910 0.05100
H 	H 	0.58465 0.23409 0.37319 0.05100
C 	C 	0.94923 0.80726 0.89961 -0.11400
C 	C 	0.80027 0.80162 0.95013 -0.01700
C 	C 	0.78016 0.70822 0.97333 -0.16600
H 	H 	0.69646 0.66870 0.94260 0.06400
H 	H 	0.91661 0.67703 0.97717 0.06000
H 	H 	0.71378 0.70917 0.01883 0.06100
H 	H 	0.83823 0.84354 0.98838 0.02800
H 	H 	0.66569 0.82447 0.93370 0.03100
H 	H 	0.91617 0.75838 0.86479 0.05300
H 	H 	0.08452 0.79064 0.91763 0.04800
