data_crystal

_cell_length_a 7.22140
_cell_length_b 12.11232
_cell_length_c 29.10158
_cell_angle_alpha 90.00006
_cell_angle_beta  89.99838
_cell_angle_gamma 89.99936

_symmetry_space_group_name_	'P 1'
_symmetry_space_group_name_H-M	'P 1'

loop_
_symmetry_equiv_pos_as_xyz
  x,y,z

loop_
_atom_site_label
_atom_site_type_symbol
_atom_site_fract_x
_atom_site_fract_y
_atom_site_fract_z
_atom_site_charge
O 	O 	0.64717 0.84918 0.20122 -0.46500
O 	O 	0.35283 0.15082 0.79878 -0.46500
O 	O 	0.35283 0.15082 0.70122 -0.46500
O 	O 	0.64717 0.84918 0.29878 -0.46500
O 	O 	0.14717 0.65082 0.29878 -0.46600
O 	O 	0.85283 0.34918 0.70122 -0.46600
O 	O 	0.85283 0.34918 0.79878 -0.46600
O 	O 	0.14717 0.65082 0.20122 -0.46600
O 	O 	0.31743 0.86221 0.29845 -0.47200
O 	O 	0.68257 0.13779 0.70155 -0.47200
O 	O 	0.68257 0.13779 0.79845 -0.47200
O 	O 	0.31743 0.86221 0.20155 -0.47300
O 	O 	0.81743 0.63779 0.20155 -0.47200
O 	O 	0.18257 0.36221 0.79845 -0.47200
O 	O 	0.18257 0.36221 0.70155 -0.47200
O 	O 	0.81743 0.63779 0.29845 -0.47200
H 	H 	0.91678 0.22854 0.45347 0.07000
H 	H 	0.08319 0.77147 0.54654 0.07000
H 	H 	0.08345 0.77149 0.95346 0.07000
H 	H 	0.91655 0.22851 0.04654 0.07000
H 	H 	0.41679 0.27150 0.04654 0.07000
H 	H 	0.58321 0.72850 0.95346 0.07000
H 	H 	0.58390 0.72856 0.54653 0.07000
H 	H 	0.41615 0.27144 0.45347 0.07000
C 	C 	0.48574 0.88784 0.31335 0.34400
C 	C 	0.51426 0.11216 0.68665 0.34400
C 	C 	0.51425 0.11217 0.81335 0.34400
C 	C 	0.48575 0.88783 0.18665 0.34400
C 	C 	0.98575 0.61216 0.18665 0.34500
C 	C 	0.01425 0.38783 0.81335 0.34500
C 	C 	0.01426 0.38783 0.68665 0.34500
C 	C 	0.98574 0.61217 0.31335 0.34500
H 	H 	0.01197 0.61063 0.69129 0.02900
H 	H 	0.98804 0.38937 0.30872 0.02900
H 	H 	0.98782 0.38933 0.19129 0.02900
H 	H 	0.01218 0.61067 0.80871 0.02900
H 	H 	0.51200 0.88934 0.80871 0.02900
H 	H 	0.48800 0.11066 0.19129 0.02900
H 	H 	0.48766 0.11066 0.30872 0.02900
H 	H 	0.51269 0.88932 0.69129 0.02900
H 	H 	0.96955 0.26020 0.37333 0.05600
H 	H 	0.03044 0.73980 0.62667 0.05600
H 	H 	0.03074 0.73984 0.87333 0.05600
H 	H 	0.96926 0.26016 0.12667 0.05600
H 	H 	0.46951 0.23983 0.12667 0.05600
H 	H 	0.53048 0.76017 0.87333 0.05600
H 	H 	0.53138 0.76017 0.62667 0.05600
H 	H 	0.46895 0.23982 0.37333 0.05600
H 	H 	0.02111 0.33783 0.59916 0.06300
H 	H 	0.97887 0.66217 0.40084 0.06300
H 	H 	0.97900 0.66220 0.09916 0.06300
H 	H 	0.02100 0.33780 0.90084 0.06300
H 	H 	0.52111 0.16219 0.90084 0.06300
H 	H 	0.47889 0.83781 0.09916 0.06300
H 	H 	0.47909 0.83781 0.40083 0.06300
H 	H 	0.52065 0.16221 0.59917 0.06300
O 	O 	0.48063 0.68063 0.25000 -0.61100
O 	O 	0.51937 0.31937 0.75000 -0.61100
O 	O 	0.98063 0.81937 0.25000 -0.61100
O 	O 	0.01937 0.18063 0.75000 -0.61100
V 	V 	0.20580 0.76286 0.25000 1.79500
V 	V 	0.79420 0.23714 0.75000 1.79500
V 	V 	0.70580 0.73714 0.25000 1.79600
V 	V 	0.29420 0.26286 0.75000 1.79600
C 	C 	0.99331 0.53430 0.35172 -0.08700
C 	C 	0.00669 0.46570 0.64828 -0.08700
C 	C 	0.00670 0.46571 0.85172 -0.08700
C 	C 	0.99330 0.53429 0.14828 -0.08700
C 	C 	0.49331 0.96570 0.14828 -0.08600
C 	C 	0.50669 0.03430 0.85172 -0.08600
C 	C 	0.50673 0.03429 0.64828 -0.08700
C 	C 	0.49328 0.96571 0.35172 -0.08700
C 	C 	0.98178 0.34779 0.38037 -0.08500
C 	C 	0.01821 0.65222 0.61964 -0.08500
C 	C 	0.01841 0.65225 0.88036 -0.08400
C 	C 	0.98159 0.34775 0.11964 -0.08400
C 	C 	0.48175 0.15224 0.11964 -0.08400
C 	C 	0.51824 0.84776 0.88036 -0.08400
C 	C 	0.51882 0.84776 0.61964 -0.08400
C 	C 	0.48137 0.15223 0.38037 -0.08400
C 	C 	0.99072 0.42092 0.34355 0.03100
C 	C 	0.00928 0.57908 0.65646 0.03100
C 	C 	0.00943 0.57911 0.84354 0.03100
C 	C 	0.99057 0.42089 0.15646 0.03100
C 	C 	0.49069 0.07910 0.15646 0.03000
C 	C 	0.50931 0.92090 0.84354 0.03000
C 	C 	0.50976 0.92089 0.65646 0.03000
C 	C 	0.49044 0.07910 0.34355 0.03000
C 	C 	0.99529 0.57431 0.39682 0.00900
C 	C 	0.00469 0.42569 0.60318 0.00900
C 	C 	0.00465 0.42568 0.89682 0.00900
C 	C 	0.99535 0.57432 0.10318 0.00900
C 	C 	0.49530 0.92568 0.10318 0.00800
C 	C 	0.50470 0.07432 0.89682 0.00800
C 	C 	0.50450 0.07431 0.60318 0.00800
C 	C 	0.49536 0.92569 0.39682 0.00800
C 	C 	0.00229 0.50162 0.43496 -0.00700
C 	C 	0.99768 0.49838 0.56504 -0.00700
C 	C 	0.99771 0.49838 0.93496 -0.00700
C 	C 	0.00229 0.50162 0.06504 -0.00700
C 	C 	0.50230 0.99838 0.06504 -0.00600
C 	C 	0.49770 0.00162 0.93496 -0.00600
C 	C 	0.49768 0.00161 0.56504 -0.00600
C 	C 	0.50223 0.99838 0.43495 -0.00600
C 	C 	0.98167 0.38740 0.42576 0.06800
C 	C 	0.01830 0.61261 0.57424 0.06800
C 	C 	0.01844 0.61262 0.92576 0.06800
C 	C 	0.98156 0.38738 0.07424 0.06800
C 	C 	0.48167 0.11262 0.07424 0.06700
C 	C 	0.51833 0.88738 0.92576 0.06700
C 	C 	0.51866 0.88738 0.57424 0.06700
C 	C 	0.48137 0.11261 0.42576 0.06700
C 	C 	0.01762 0.53851 0.48169 -0.03600
C 	C 	0.98235 0.46150 0.51831 -0.03600
C 	C 	0.98233 0.46149 0.98169 -0.03600
C 	C 	0.01767 0.53851 0.01831 -0.03600
C 	C 	0.51763 0.96149 0.01831 -0.03600
C 	C 	0.48236 0.03851 0.98169 -0.03600
C 	C 	0.48222 0.03849 0.51831 -0.03600
C 	C 	0.51765 0.96150 0.48169 -0.03600
C 	C 	0.92993 0.35130 0.50683 0.16300
C 	C 	0.07003 0.64871 0.49317 0.16300
C 	C 	0.07016 0.64872 0.00683 0.16300
C 	C 	0.92983 0.35129 0.99317 0.16300
C 	C 	0.42995 0.14873 0.99318 0.16300
C 	C 	0.57004 0.85127 0.00682 0.16300
C 	C 	0.57030 0.85132 0.49317 0.16300
C 	C 	0.42958 0.14867 0.50683 0.16300
C 	C 	0.94629 0.31424 0.46145 -0.13900
C 	C 	0.05368 0.68576 0.53856 -0.13800
C 	C 	0.05386 0.68578 0.96144 -0.13800
C 	C 	0.94613 0.31422 0.03856 -0.13800
C 	C 	0.44629 0.18579 0.03856 -0.13800
C 	C 	0.55370 0.81421 0.96144 -0.13800
C 	C 	0.55415 0.81425 0.53855 -0.13800
C 	C 	0.44584 0.18574 0.46145 -0.13800
O 	O 	0.84978 0.28287 0.53922 -0.28800
H 	H 	0.82343 0.20954 0.52554 0.15300
O 	O 	0.15018 0.71714 0.46078 -0.28800
H 	H 	0.17650 0.79048 0.47446 0.15300
O 	O 	0.15037 0.71714 0.03921 -0.28800
H 	H 	0.17670 0.79049 0.02554 0.15300
O 	O 	0.84963 0.28286 0.96079 -0.28800
H 	H 	0.82330 0.20952 0.97446 0.15300
O 	O 	0.34981 0.21717 0.96079 -0.28800
H 	H 	0.32351 0.29052 0.97447 0.15300
O 	O 	0.65019 0.78282 0.03921 -0.28800
H 	H 	0.67648 0.70948 0.02553 0.15300
O 	O 	0.65053 0.78293 0.46077 -0.28800
H 	H 	0.67702 0.70961 0.47444 0.15300
O 	O 	0.34930 0.21706 0.53922 -0.28800
H 	H 	0.32293 0.29040 0.52555 0.15300
