data_crystal

_cell_length_a 7.22342
_cell_length_b 12.13917
_cell_length_c 29.09888
_cell_angle_alpha 90.00219
_cell_angle_beta  89.96233
_cell_angle_gamma 89.76679

_symmetry_space_group_name_	'P 1'
_symmetry_space_group_name_H-M	'P 1'

loop_
_symmetry_equiv_pos_as_xyz
  x,y,z

loop_
_atom_site_label
_atom_site_type_symbol
_atom_site_fract_x
_atom_site_fract_y
_atom_site_fract_z
_atom_site_charge
O 	O 	0.64717 0.84918 0.20122 -0.46800
O 	O 	0.35283 0.15082 0.79878 -0.46800
O 	O 	0.35283 0.15082 0.70122 -0.46900
O 	O 	0.64717 0.84918 0.29878 -0.46900
O 	O 	0.14717 0.65082 0.29878 -0.47100
O 	O 	0.85283 0.34918 0.70122 -0.47100
O 	O 	0.85283 0.34918 0.79878 -0.47100
O 	O 	0.14717 0.65082 0.20122 -0.47100
O 	O 	0.31743 0.86221 0.29845 -0.47500
O 	O 	0.68257 0.13779 0.70155 -0.47500
O 	O 	0.68257 0.13779 0.79845 -0.47500
O 	O 	0.31743 0.86221 0.20155 -0.47500
O 	O 	0.81743 0.63779 0.20155 -0.47500
O 	O 	0.18257 0.36221 0.79845 -0.47500
O 	O 	0.18257 0.36221 0.70155 -0.47500
O 	O 	0.81743 0.63779 0.29845 -0.47500
C 	C 	0.48540 0.88780 0.31334 0.34200
C 	C 	0.51460 0.11220 0.68666 0.34200
C 	C 	0.51451 0.11220 0.81334 0.34200
C 	C 	0.48548 0.88780 0.18666 0.34200
C 	C 	0.98610 0.61223 0.18667 0.34400
C 	C 	0.01390 0.38777 0.81333 0.34400
C 	C 	0.01400 0.38775 0.68667 0.34400
C 	C 	0.98600 0.61225 0.31333 0.34400
O 	O 	0.48063 0.68063 0.25000 -0.61300
O 	O 	0.51937 0.31937 0.75000 -0.61300
O 	O 	0.98063 0.81937 0.25000 -0.61100
O 	O 	0.01937 0.18063 0.75000 -0.61100
V 	V 	0.20580 0.76286 0.25000 1.79400
V 	V 	0.79420 0.23714 0.75000 1.79400
V 	V 	0.70580 0.73714 0.25000 1.79500
V 	V 	0.29420 0.26286 0.75000 1.79500
C 	C 	0.99478 0.53469 0.35173 -0.08600
C 	C 	0.00522 0.46531 0.64827 -0.08600
C 	C 	0.00473 0.46532 0.85173 -0.08600
C 	C 	0.99527 0.53468 0.14827 -0.08600
C 	C 	0.49148 0.96555 0.14829 -0.08900
C 	C 	0.50852 0.03445 0.85171 -0.08900
C 	C 	0.50892 0.03442 0.64829 -0.08900
C 	C 	0.49108 0.96558 0.35171 -0.08900
C 	C 	0.01927 0.34862 0.38023 -0.07300
C 	C 	0.98073 0.65138 0.61977 -0.07300
C 	C 	0.97640 0.65121 0.88025 -0.07300
C 	C 	0.02360 0.34880 0.11975 -0.07300
C 	C 	0.47355 0.15174 0.11959 -0.07400
C 	C 	0.52645 0.84826 0.88041 -0.07400
C 	C 	0.52942 0.84834 0.61956 -0.07400
C 	C 	0.47058 0.15166 0.38044 -0.07400
C 	C 	0.00990 0.42185 0.34349 0.02300
C 	C 	0.99010 0.57815 0.65651 0.02300
C 	C 	0.98687 0.57804 0.84350 0.02300
C 	C 	0.01313 0.42196 0.15650 0.02300
C 	C 	0.47635 0.07847 0.15638 0.02600
C 	C 	0.52365 0.92153 0.84362 0.02600
C 	C 	0.52590 0.92158 0.65635 0.02600
C 	C 	0.47410 0.07842 0.34365 0.02600
C 	C 	0.98926 0.57466 0.39682 0.00600
C 	C 	0.01074 0.42534 0.60318 0.00600
C 	C 	0.01176 0.42543 0.89681 0.00600
C 	C 	0.98824 0.57457 0.10319 0.00600
C 	C 	0.50278 0.92556 0.10326 0.00700
C 	C 	0.49722 0.07444 0.89674 0.00700
C 	C 	0.49655 0.07438 0.60328 0.00700
C 	C 	0.50345 0.92562 0.39672 0.00700
C 	C 	0.99894 0.50215 0.43494 -0.02000
C 	C 	0.00106 0.49785 0.56506 -0.02000
C 	C 	0.00075 0.49786 0.93494 -0.02000
C 	C 	0.99925 0.50214 0.06506 -0.02000
C 	C 	0.49739 0.99803 0.06507 -0.02200
C 	C 	0.50261 0.00197 0.93493 -0.02200
C 	C 	0.50284 0.00195 0.56507 -0.02200
C 	C 	0.49716 0.99805 0.43493 -0.02200
C 	C 	0.01386 0.38757 0.42567 0.03900
C 	C 	0.98614 0.61243 0.57433 0.03900
C 	C 	0.98318 0.61232 0.92568 0.03900
C 	C 	0.01682 0.38768 0.07432 0.03900
C 	C 	0.48330 0.11270 0.07422 0.04200
C 	C 	0.51670 0.88730 0.92578 0.04200
C 	C 	0.51873 0.88735 0.57420 0.04200
C 	C 	0.48127 0.11265 0.42580 0.04200
C 	C 	0.99464 0.53931 0.48168 0.00600
C 	C 	0.00536 0.46069 0.51832 0.00600
C 	C 	0.00611 0.46074 0.98168 0.00600
C 	C 	0.99388 0.53926 0.01832 0.00600
C 	C 	0.50373 0.96072 0.01836 0.00600
C 	C 	0.49627 0.03928 0.98164 0.00600
C 	C 	0.49575 0.03925 0.51836 0.00600
C 	C 	0.50425 0.96075 0.48164 0.00600
C 	C 	0.01977 0.34768 0.50698 -0.03200
C 	C 	0.98023 0.65232 0.49302 -0.03200
C 	C 	0.97700 0.65217 0.00700 -0.03200
C 	C 	0.02300 0.34783 0.99299 -0.03200
C 	C 	0.48342 0.15241 0.99287 -0.03200
C 	C 	0.51658 0.84759 0.00713 -0.03200
C 	C 	0.51881 0.84769 0.49284 -0.03200
C 	C 	0.48119 0.15231 0.50716 -0.03200
C 	C 	0.02360 0.31233 0.46168 -0.05600
C 	C 	0.97640 0.68767 0.53833 -0.05600
C 	C 	0.97211 0.68748 0.96170 -0.05600
C 	C 	0.02789 0.31252 0.03830 -0.05600
C 	C 	0.47750 0.18791 0.03815 -0.05700
C 	C 	0.52250 0.81209 0.96185 -0.05700
C 	C 	0.52548 0.81220 0.53811 -0.05700
C 	C 	0.47452 0.18780 0.46189 -0.05700
H 	H 	0.03491 0.22476 0.45476 0.04700
H 	H 	0.96509 0.77524 0.54524 0.04700
H 	H 	0.95886 0.77497 0.95480 0.04700
H 	H 	0.04114 0.22503 0.04520 0.04700
H 	H 	0.46703 0.27555 0.04498 0.04700
H 	H 	0.53297 0.72445 0.95502 0.04700
H 	H 	0.53732 0.72461 0.54492 0.04700
H 	H 	0.46268 0.27539 0.45508 0.04700
H 	H 	0.98542 0.60940 0.69137 0.03000
H 	H 	0.01458 0.39060 0.30862 0.03000
H 	H 	0.01913 0.39078 0.19136 0.03000
H 	H 	0.98087 0.60922 0.80864 0.03000
H 	H 	0.53402 0.89027 0.80883 0.03000
H 	H 	0.46598 0.10973 0.19117 0.03000
H 	H 	0.46282 0.10964 0.30887 0.03000
H 	H 	0.53718 0.89036 0.69113 0.03000
H 	H 	0.03110 0.26120 0.37313 0.05100
H 	H 	0.96890 0.73880 0.62687 0.05100
H 	H 	0.96249 0.73852 0.87316 0.05100
H 	H 	0.03751 0.26148 0.12684 0.05100
H 	H 	0.46183 0.23921 0.12660 0.05200
H 	H 	0.53817 0.76079 0.87340 0.05200
H 	H 	0.54258 0.76094 0.62655 0.05200
H 	H 	0.45742 0.23906 0.37345 0.05200
H 	H 	0.02229 0.33735 0.59937 0.03600
H 	H 	0.97771 0.66265 0.40063 0.03600
H 	H 	0.97474 0.66247 0.09939 0.03600
H 	H 	0.02526 0.33753 0.90061 0.03600
H 	H 	0.48737 0.16252 0.90047 0.03500
H 	H 	0.51263 0.83748 0.09953 0.03500
H 	H 	0.51469 0.83760 0.40044 0.03500
H 	H 	0.48531 0.16240 0.59956 0.03500
H 	H 	0.02862 0.28340 0.53234 0.04000
H 	H 	0.97138 0.71660 0.46766 0.04000
H 	H 	0.96695 0.71639 0.03237 0.04000
H 	H 	0.03305 0.28361 0.96763 0.04000
H 	H 	0.47714 0.21667 0.96746 0.03900
H 	H 	0.52285 0.78333 0.03254 0.03900
H 	H 	0.52591 0.78349 0.46742 0.03900
H 	H 	0.47409 0.21651 0.53258 0.03900
