data_crystal

_cell_length_a 21.96246
_cell_length_b 7.20191
_cell_length_c 14.76403
_cell_angle_alpha 90.05793
_cell_angle_beta  105.60270
_cell_angle_gamma 89.92769

_symmetry_space_group_name_	'P 1'
_symmetry_space_group_name_H-M	'P 1'

loop_
_symmetry_equiv_pos_as_xyz
  x,y,z

loop_
_atom_site_label
_atom_site_type_symbol
_atom_site_fract_x
_atom_site_fract_y
_atom_site_fract_z
_atom_site_charge
O 	O 	0.58477 0.50577 0.00209 -0.47200
O 	O 	0.41523 0.00577 0.99791 -0.47200
O 	O 	0.46706 0.17334 0.86195 -0.45900
O 	O 	0.53294 0.67334 0.13805 -0.45800
C 	C 	0.45545 0.34421 0.82563 0.32200
C 	C 	0.54459 0.84422 0.17438 0.31600
O 	O 	0.58751 0.17589 0.99321 -0.48200
O 	O 	0.41249 0.67589 0.00679 -0.48100
O 	O 	0.53654 0.00815 0.13010 -0.45000
O 	O 	0.46346 0.50815 0.86990 -0.45600
C 	C 	0.61252 0.34324 0.99451 0.36900
C 	C 	0.38753 0.84378 0.00570 0.36600
O 	O 	0.48314 0.34004 0.04476 -0.61400
O 	O 	0.51686 0.84004 0.95524 -0.61500
V 	V 	0.50313 0.06419 0.99170 1.79600
V 	V 	0.49687 0.56419 0.00830 1.79700
C 	C 	0.22124 0.70453 0.02610 -0.01500
C 	C 	0.77939 0.20673 0.97296 -0.01200
C 	C 	0.19541 0.87165 0.02202 -0.09200
C 	C 	0.80444 0.37481 0.97590 -0.09400
H 	H 	0.19857 0.58072 0.04262 0.04900
H 	H 	0.80122 0.08568 0.95177 0.04700
H 	H 	0.17325 0.97816 0.03338 0.05400
H 	H 	0.82586 0.48669 0.96670 0.05900
C 	C 	0.28688 0.69759 0.01600 0.03200
C 	C 	0.71401 0.19651 0.98395 0.03000
C 	C 	0.32334 0.85137 0.01895 -0.15800
C 	C 	0.67655 0.34957 0.98075 -0.15700
H 	H 	0.30439 0.56207 0.00412 0.04700
H 	H 	0.69692 0.06116 0.99669 0.04500
H 	H 	0.30671 0.98651 0.03174 0.09600
H 	H 	0.69260 0.48407 0.96562 0.09700
C 	C 	0.92886 0.87906 0.72041 -0.11600
C 	C 	0.07104 0.37954 0.27952 -0.11700
C 	C 	0.57447 0.85094 0.27592 -0.06400
C 	C 	0.42567 0.35142 0.72412 -0.06500
C 	C 	0.93942 0.83534 0.56236 -0.12200
C 	C 	0.06097 0.33586 0.43762 -0.12300
C 	C 	0.96804 0.84862 0.65868 0.10100
C 	C 	0.03224 0.34503 0.34125 0.10200
C 	C 	0.86253 0.88159 0.68247 0.02700
C 	C 	0.13736 0.38790 0.31743 0.02800
C 	C 	0.83368 0.85492 0.58455 -0.05400
C 	C 	0.16649 0.36372 0.41542 -0.05500
C 	C 	0.87403 0.83756 0.52562 0.09000
C 	C 	0.12626 0.34438 0.47436 0.09200
C 	C 	0.76667 0.84734 0.54326 0.04100
C 	C 	0.23354 0.35916 0.45676 0.04200
C 	C 	0.74082 0.83316 0.44222 -0.04800
C 	C 	0.25937 0.34528 0.55785 -0.04900
C 	C 	0.78531 0.81143 0.38654 0.12200
C 	C 	0.21492 0.32499 0.61364 0.12300
C 	C 	0.84990 0.81759 0.42928 -0.12100
C 	C 	0.15040 0.32836 0.57078 -0.12100
C 	C 	0.72511 0.84800 0.60138 -0.04800
C 	C 	0.27512 0.36122 0.39868 -0.04800
C 	C 	0.66045 0.85195 0.56478 -0.03800
C 	C 	0.33978 0.36163 0.43532 -0.03800
C 	C 	0.63370 0.85254 0.46848 0.02200
C 	C 	0.36653 0.35841 0.53161 0.02200
C 	C 	0.67257 0.84057 0.40519 0.02300
C 	C 	0.32759 0.34984 0.59487 0.02300
C 	C 	0.56754 0.86572 0.43536 -0.05800
C 	C 	0.43278 0.36457 0.56474 -0.05800
C 	C 	0.53808 0.86443 0.33954 0.01200
C 	C 	0.46221 0.35963 0.66053 0.01400
C 	C 	0.64039 0.84404 0.30820 -0.01500
C 	C 	0.35971 0.35248 0.69184 -0.01400
H 	H 	0.88270 0.80154 0.38629 0.07300
H 	H 	0.11764 0.31255 0.61382 0.07500
H 	H 	0.66374 0.85205 0.25425 0.07200
H 	H 	0.33642 0.36550 0.74565 0.07300
H 	H 	0.48711 0.87388 0.31491 0.03400
H 	H 	0.51328 0.36342 0.68518 0.03400
H 	H 	0.63092 0.85602 0.61301 0.04200
H 	H 	0.36934 0.36505 0.38710 0.04300
H 	H 	0.96905 0.81937 0.51462 0.05900
H 	H 	0.03152 0.31793 0.48545 0.06000
H 	H 	0.83498 0.90642 0.73166 0.02900
H 	H 	0.16464 0.41483 0.26815 0.02900
H 	H 	0.74109 0.84313 0.67684 0.04500
H 	H 	0.25916 0.35892 0.32316 0.04600
H 	H 	0.53846 0.87660 0.48399 0.04700
H 	H 	0.46196 0.37247 0.51613 0.04700
O 	O 	0.03645 0.23307 0.13013 -0.46700
O 	O 	0.96355 0.73307 0.86987 -0.46700
O 	O 	0.91247 0.56057 0.00679 -0.46000
O 	O 	0.08753 0.06057 0.99321 -0.45700
C 	C 	0.88163 0.39185 0.99037 0.27400
C 	C 	0.11840 0.89113 0.00961 0.26900
O 	O 	0.03292 0.56294 0.13805 -0.47100
O 	O 	0.96708 0.06294 0.86195 -0.46800
O 	O 	0.08479 0.73050 0.00209 -0.45100
O 	O 	0.91521 0.23050 0.99791 -0.45200
C 	C 	0.04559 0.39387 0.17551 0.34400
C 	C 	0.95400 0.89385 0.82453 0.34100
O 	O 	0.01682 0.39617 0.95526 -0.62500
O 	O 	0.98318 0.89617 0.04474 -0.63000
V 	V 	0.99688 0.67209 0.00830 1.79300
V 	V 	0.00312 0.17209 0.99170 1.79300
C 	C 	0.03996 0.83522 0.68493 -0.13100
C 	C 	0.07188 0.77218 0.78444 -0.00200
C 	C 	0.14175 0.73060 0.79944 -0.18200
H 	H 	0.14968 0.63497 0.74508 0.08400
H 	H 	0.16881 0.86087 0.80038 0.09000
H 	H 	0.15884 0.65687 0.86620 0.08800
H 	H 	0.06859 0.88685 0.83221 0.04200
H 	H 	0.04861 0.64413 0.80023 0.04800
H 	H 	0.05352 0.73264 0.63719 0.05900
H 	H 	0.05948 0.97165 0.67168 0.06400
C 	C 	0.96049 0.32395 0.31504 -0.13200
C 	C 	0.92934 0.25373 0.21637 -0.00300
C 	C 	0.86079 0.19759 0.20320 -0.17900
H 	H 	0.85687 0.09029 0.25502 0.08400
H 	H 	0.83139 0.31985 0.20913 0.08900
H 	H 	0.84291 0.13347 0.13347 0.08700
H 	H 	0.92975 0.36856 0.16734 0.04200
H 	H 	0.95518 0.13031 0.20139 0.05000
H 	H 	0.94822 0.22232 0.36431 0.06000
H 	H 	0.93918 0.45891 0.32630 0.06500
Br	Br	0.77018 0.74061 0.25593 -0.27300
Br	Br	0.22977 0.26025 0.74500 -0.27100
