data_crystal

_cell_length_a 28.27338
_cell_length_b 7.18409
_cell_length_c 17.18632
_cell_angle_alpha 89.99985
_cell_angle_beta  102.08266
_cell_angle_gamma 89.99996

_symmetry_space_group_name_	'P 1'
_symmetry_space_group_name_H-M	'P 1'

loop_
_symmetry_equiv_pos_as_xyz
  x,y,z

loop_
_atom_site_label
_atom_site_type_symbol
_atom_site_fract_x
_atom_site_fract_y
_atom_site_fract_z
_atom_site_charge
O 	O 	0.00070 0.43651 0.85792 -0.46700
O 	O 	0.99930 0.56349 0.14208 -0.46600
O 	O 	0.99930 0.93651 0.64208 -0.46700
O 	O 	0.00070 0.06349 0.35792 -0.46500
O 	O 	0.93008 0.76638 0.72189 -0.47700
O 	O 	0.06992 0.23362 0.27811 -0.47600
O 	O 	0.06992 0.26638 0.77811 -0.47600
O 	O 	0.93008 0.73362 0.22189 -0.47600
C 	C 	0.91061 0.59734 0.70737 0.35200
C 	C 	0.08942 0.40252 0.29249 0.35200
C 	C 	0.08942 0.09748 0.79249 0.35200
C 	C 	0.91061 0.90266 0.20737 0.35000
O 	O 	0.99618 0.76623 0.86231 -0.47000
O 	O 	0.00382 0.23377 0.13769 -0.47000
O 	O 	0.00382 0.26623 0.63769 -0.47000
O 	O 	0.99618 0.73377 0.36231 -0.47000
O 	O 	0.06587 0.93646 0.78350 -0.47000
O 	O 	0.93413 0.06354 0.21650 -0.46700
O 	O 	0.93413 0.43646 0.71650 -0.47000
O 	O 	0.06587 0.56354 0.28350 -0.47000
C 	C 	0.99845 0.59645 0.89450 0.35500
C 	C 	0.00157 0.40355 0.10551 0.35500
C 	C 	0.00157 0.09645 0.60551 0.35600
C 	C 	0.99845 0.90355 0.39450 0.35300
O 	O 	0.02279 0.60302 0.72398 -0.60300
O 	O 	0.97721 0.39698 0.27602 -0.60300
O 	O 	0.97721 0.10302 0.77602 -0.60200
O 	O 	0.02279 0.89698 0.22398 -0.60400
V 	V 	0.99577 0.87790 0.75483 1.80000
V 	V 	0.00423 0.12210 0.24517 1.80100
V 	V 	0.00423 0.37790 0.74517 1.80100
V 	V 	0.99577 0.62210 0.25483 1.80100
C 	C 	0.00173 0.08274 0.51957 -0.08400
C 	C 	0.99830 0.91726 0.48044 -0.08700
C 	C 	0.99830 0.58274 0.98044 -0.08600
C 	C 	0.00173 0.41726 0.01957 -0.08600
H 	H 	0.00451 0.21177 0.48789 0.09200
H 	H 	0.99552 0.78822 0.51212 0.09300
H 	H 	0.99552 0.71177 0.01212 0.09200
H 	H 	0.00451 0.28823 0.98789 0.09200
C 	C 	0.68279 0.92949 0.02227 0.18700
C 	C 	0.31679 0.06510 0.98002 0.18700
C 	C 	0.31679 0.43490 0.48001 0.18800
C 	C 	0.68279 0.57052 0.52226 0.18800
O 	O 	0.71224 0.90830 0.97051 -0.17800
O 	O 	0.28678 0.06695 0.03151 -0.17700
O 	O 	0.28678 0.43304 0.53150 -0.17800
O 	O 	0.71224 0.59170 0.47050 -0.17800
N 	N 	0.70277 0.93139 0.10210 -0.17500
N 	N 	0.29736 0.08108 0.90025 -0.17500
N 	N 	0.29736 0.41893 0.40024 -0.17500
N 	N 	0.70277 0.56865 0.60208 -0.17600
C 	C 	0.67451 0.94938 0.15713 0.19000
C 	C 	0.32636 0.08672 0.84586 0.19000
C 	C 	0.32636 0.41329 0.34586 0.19000
C 	C 	0.67451 0.55067 0.65711 0.19100
C 	C 	0.77743 0.76863 0.16915 -0.09200
C 	C 	0.22197 0.24089 0.83423 -0.09200
C 	C 	0.22198 0.25913 0.33421 -0.09300
C 	C 	0.77743 0.73145 0.66909 -0.09300
C 	C 	0.82786 0.76306 0.19410 0.04800
C 	C 	0.17162 0.24280 0.80827 0.04800
C 	C 	0.17162 0.25722 0.30825 0.04800
C 	C 	0.82787 0.73700 0.69405 0.04800
C 	C 	0.83345 0.07028 0.13725 0.05800
C 	C 	0.16728 0.93002 0.86037 0.05600
C 	C 	0.16728 0.56996 0.36039 0.05600
C 	C 	0.83345 0.42968 0.63729 0.05600
C 	C 	0.78297 0.07380 0.11272 -0.09200
C 	C 	0.21776 0.92966 0.88549 -0.09500
C 	C 	0.21776 0.57032 0.38551 -0.09500
C 	C 	0.78297 0.42617 0.61276 -0.09600
C 	C 	0.75473 0.92409 0.12833 0.13800
C 	C 	0.24538 0.08432 0.87301 0.14100
C 	C 	0.24538 0.41569 0.37300 0.14100
C 	C 	0.75473 0.57594 0.62832 0.14200
C 	C 	0.60236 0.96838 0.05102 0.05500
C 	C 	0.39794 0.05158 0.95215 0.05500
C 	C 	0.39794 0.44843 0.45214 0.05600
C 	C 	0.60236 0.53165 0.55101 0.05600
C 	C 	0.63197 0.94936 0.99438 -0.06900
C 	C 	0.36765 0.04783 0.00821 -0.06800
C 	C 	0.36766 0.45219 0.50820 -0.06900
C 	C 	0.63197 0.55066 0.49436 -0.06900
C 	C 	0.60962 0.95107 0.91249 0.01900
C 	C 	0.38935 0.02444 0.08975 0.01800
C 	C 	0.38936 0.47559 0.58974 0.01900
C 	C 	0.60962 0.54894 0.41247 0.01900
C 	C 	0.62404 0.96694 0.13282 -0.06900
C 	C 	0.37688 0.07345 0.87066 -0.06900
C 	C 	0.37688 0.42656 0.37065 -0.06900
C 	C 	0.62404 0.53310 0.63281 -0.06900
C 	C 	0.85685 0.91336 0.17925 -0.09900
C 	C 	0.14324 0.08825 0.82049 -0.09600
C 	C 	0.14324 0.41175 0.32049 -0.09600
C 	C 	0.85685 0.58664 0.67925 -0.09600
H 	H 	0.76527 0.19366 0.08090 0.07900
H 	H 	0.23593 0.80858 0.91556 0.07900
H 	H 	0.23593 0.69139 0.41560 0.07900
H 	H 	0.76526 0.30628 0.58097 0.08000
C 	C 	0.47879 0.03014 0.91951 0.01700
C 	C 	0.52189 0.00345 0.08413 0.01700
C 	C 	0.52189 0.49658 0.58412 0.01500
C 	C 	0.47879 0.46987 0.41950 0.01500
C 	C 	0.47051 0.01549 0.05914 0.01600
C 	C 	0.52960 0.99900 0.94409 0.01600
C 	C 	0.52960 0.50102 0.44408 0.01700
C 	C 	0.47051 0.48455 0.55913 0.01700
C 	C 	0.44923 0.03255 0.97709 -0.02400
C 	C 	0.55112 0.99014 0.02628 -0.02600
C 	C 	0.55112 0.50988 0.52627 -0.02400
C 	C 	0.44923 0.46747 0.47708 -0.02400
C 	C 	0.45632 0.06071 0.83888 -0.05500
C 	C 	0.54531 0.00560 0.16543 -0.05200
C 	C 	0.54531 0.49445 0.66542 -0.05500
C 	C 	0.45633 0.43928 0.33887 -0.05500
C 	C 	0.40655 0.08068 0.81516 0.01000
C 	C 	0.59514 0.98713 0.18901 0.00600
C 	C 	0.59514 0.51291 0.68899 0.01000
C 	C 	0.40655 0.41932 0.31515 0.01000
O 	O 	0.30629 0.10177 0.76764 -0.17900
O 	O 	0.69531 0.95335 0.23532 -0.18000
O 	O 	0.69531 0.54671 0.73531 -0.17900
O 	O 	0.30629 0.39825 0.26763 -0.17900
C 	C 	0.55965 0.97405 0.88880 -0.05800
C 	C 	0.43951 0.00838 0.11374 -0.05500
C 	C 	0.43951 0.49166 0.61374 -0.05800
C 	C 	0.55965 0.52596 0.38879 -0.05800
H 	H 	0.15492 0.36608 0.77818 0.04800
H 	H 	0.84416 0.64096 0.22576 0.04700
H 	H 	0.84416 0.85914 0.72568 0.04600
H 	H 	0.15492 0.13395 0.27814 0.04800
H 	H 	0.24281 0.36186 0.82439 0.08000
H 	H 	0.75598 0.65156 0.18138 0.08000
H 	H 	0.75599 0.84855 0.68128 0.08000
H 	H 	0.24282 0.13818 0.32434 0.08000
H 	H 	0.39137 0.10177 0.75247 0.05100
H 	H 	0.61100 0.98971 0.25212 0.05100
H 	H 	0.61100 0.51034 0.75211 0.05100
H 	H 	0.39137 0.39821 0.25246 0.05000
H 	H 	0.47621 0.07376 0.79214 0.04600
H 	H 	0.52640 0.02594 0.21300 0.04600
H 	H 	0.52640 0.47410 0.71299 0.04600
H 	H 	0.47621 0.42622 0.29214 0.04600
H 	H 	0.54504 0.96771 0.82569 0.04800
H 	H 	0.45323 0.98485 0.17633 0.04600
H 	H 	0.45323 0.51521 0.67632 0.04800
H 	H 	0.54503 0.53229 0.32568 0.04800
C 	C 	0.85967 0.22834 0.11584 0.08300
N 	N 	0.88043 0.35541 0.09853 -0.10300
C 	C 	0.14170 0.76763 0.87926 0.08200
N 	N 	0.12139 0.63727 0.89460 -0.10400
C 	C 	0.14169 0.73233 0.37930 0.08300
N 	N 	0.12139 0.86268 0.39466 -0.10300
C 	C 	0.85965 0.27154 0.61594 0.08300
N 	N 	0.88042 0.14442 0.59867 -0.10200
C 	C 	0.63625 0.93190 0.84960 0.08900
N 	N 	0.65731 0.91718 0.79896 -0.09800
C 	C 	0.36184 0.01241 0.15177 0.09000
N 	N 	0.34009 0.00245 0.20168 -0.09700
C 	C 	0.36184 0.48762 0.65176 0.08900
N 	N 	0.34009 0.49759 0.70168 -0.09700
C 	C 	0.63625 0.56809 0.34958 0.08900
N 	N 	0.65730 0.58279 0.29894 -0.09700
