data_crystal

_cell_length_a 27.94273
_cell_length_b 18.73676
_cell_length_c 16.80709
_cell_angle_alpha 89.99980
_cell_angle_beta  63.09488
_cell_angle_gamma 89.99992

_symmetry_space_group_name_	'P 1'
_symmetry_space_group_name_H-M	'P 1'

loop_
_symmetry_equiv_pos_as_xyz
  x,y,z

loop_
_atom_site_label
_atom_site_type_symbol
_atom_site_fract_x
_atom_site_fract_y
_atom_site_fract_z
_atom_site_charge
C 	C 	0.29388 0.72639 0.33002 0.39000
C 	C 	0.70492 0.27125 0.67053 0.39100
C 	C 	0.70612 0.72639 0.66998 0.39000
C 	C 	0.29508 0.27125 0.32947 0.39100
C 	C 	0.79387 0.22638 0.33003 0.38900
C 	C 	0.20492 0.77125 0.67053 0.39100
C 	C 	0.20612 0.22639 0.66998 0.38900
C 	C 	0.79508 0.77125 0.32947 0.39100
C 	C 	0.56010 0.87890 0.46507 0.25400
C 	C 	0.46449 0.12815 0.45339 0.24200
C 	C 	0.43989 0.87890 0.53494 0.25400
C 	C 	0.53550 0.12815 0.54664 0.24200
C 	C 	0.06011 0.37890 0.46506 0.25700
C 	C 	0.96449 0.62815 0.45337 0.24700
C 	C 	0.93989 0.37890 0.53494 0.25700
C 	C 	0.03551 0.62815 0.54663 0.24700
C 	C 	0.20708 0.74337 0.96375 -0.01500
C 	C 	0.76739 0.20908 0.05505 -0.01800
C 	C 	0.79292 0.74337 0.03625 -0.01500
C 	C 	0.23260 0.20910 0.94497 -0.01800
C 	C 	0.70707 0.24336 0.96376 -0.01600
C 	C 	0.26740 0.70910 0.05503 -0.01700
C 	C 	0.29292 0.24337 0.03625 -0.01600
C 	C 	0.73260 0.70910 0.94497 -0.01700
C 	C 	0.23651 0.79632 0.98190 0.25000
C 	C 	0.73841 0.15577 0.03665 0.23700
C 	C 	0.76349 0.79632 0.01810 0.25000
C 	C 	0.26156 0.15578 0.96338 0.23700
C 	C 	0.73652 0.29631 0.98190 0.24800
C 	C 	0.23843 0.65578 0.03663 0.24000
C 	C 	0.26349 0.29632 0.01810 0.24800
C 	C 	0.76157 0.65578 0.96338 0.24000
C 	C 	0.26597 0.77943 0.02782 0.24400
C 	C 	0.70767 0.17302 0.99258 0.23900
C 	C 	0.73403 0.77943 0.97218 0.24400
C 	C 	0.29230 0.17302 0.00745 0.23900
C 	C 	0.76597 0.27942 0.02782 0.24000
C 	C 	0.20769 0.67302 0.99256 0.24000
C 	C 	0.23403 0.27944 0.97217 0.24100
C 	C 	0.79231 0.67302 0.00744 0.24000
C 	C 	0.13579 0.81426 0.95037 0.43400
C 	C 	0.84803 0.15732 0.06037 0.42700
C 	C 	0.86421 0.81426 0.04963 0.43400
C 	C 	0.15197 0.15733 0.93963 0.42700
C 	C 	0.63579 0.31426 0.95037 0.43400
C 	C 	0.34803 0.65733 0.06037 0.43000
C 	C 	0.36421 0.31426 0.04963 0.43400
C 	C 	0.65197 0.65733 0.93963 0.43000
C 	C 	0.11790 0.85112 0.89573 -0.25900
C 	C 	0.87993 0.14557 0.10463 -0.28300
C 	C 	0.88210 0.85112 0.10427 -0.25900
C 	C 	0.12007 0.14557 0.89537 -0.28300
C 	C 	0.61790 0.35112 0.89573 -0.26500
C 	C 	0.37993 0.64557 0.10463 -0.27800
C 	C 	0.38210 0.35112 0.10427 -0.26500
C 	C 	0.62007 0.64557 0.89537 -0.27800
C 	C 	0.14480 0.84117 0.80315 0.29700
C 	C 	0.86484 0.17623 0.18879 0.28600
C 	C 	0.85520 0.84117 0.19685 0.29700
C 	C 	0.13516 0.17624 0.81121 0.28600
C 	C 	0.64480 0.34117 0.80315 0.29600
C 	C 	0.36484 0.67624 0.18879 0.28700
C 	C 	0.35520 0.34117 0.19685 0.29600
C 	C 	0.63516 0.67624 0.81121 0.28700
C 	C 	0.18067 0.78387 0.76741 -0.22000
C 	C 	0.81349 0.20634 0.23560 -0.23900
C 	C 	0.81933 0.78387 0.23259 -0.22000
C 	C 	0.18650 0.20636 0.76441 -0.23900
C 	C 	0.68067 0.28387 0.76741 -0.22200
C 	C 	0.31350 0.70636 0.23559 -0.23500
C 	C 	0.31933 0.28387 0.23259 -0.22200
C 	C 	0.68650 0.70636 0.76441 -0.23500
C 	C 	0.19534 0.74270 0.82395 0.24500
C 	C 	0.77967 0.21251 0.19335 0.24600
C 	C 	0.80466 0.74270 0.17605 0.24500
C 	C 	0.22032 0.21255 0.80666 0.24600
C 	C 	0.69534 0.24270 0.82396 0.24400
C 	C 	0.27968 0.71254 0.19334 0.24700
C 	C 	0.30467 0.24270 0.17605 0.24400
C 	C 	0.72032 0.71254 0.80666 0.24700
C 	C 	0.17711 0.76375 0.91341 -0.09700
C 	C 	0.79884 0.19249 0.10371 -0.10800
C 	C 	0.82289 0.76375 0.08659 -0.09600
C 	C 	0.20115 0.19251 0.89630 -0.10800
C 	C 	0.67711 0.26375 0.91342 -0.09900
C 	C 	0.29885 0.69251 0.10370 -0.10500
C 	C 	0.32289 0.26376 0.08659 -0.09900
C 	C 	0.70115 0.69251 0.89630 -0.10500
C 	C 	0.19647 0.63199 0.52845 0.37600
C 	C 	0.80010 0.36920 0.48410 0.37800
C 	C 	0.80353 0.63199 0.47156 0.37600
C 	C 	0.19990 0.36920 0.51590 0.37800
C 	C 	0.69647 0.13199 0.52845 0.36300
C 	C 	0.30010 0.86920 0.48410 0.36000
C 	C 	0.30353 0.13199 0.47156 0.36300
C 	C 	0.69990 0.86920 0.51590 0.36000
C 	C 	0.92586 0.90377 0.06685 0.41200
C 	C 	0.07373 0.09687 0.93364 0.40800
C 	C 	0.07414 0.90377 0.93315 0.41200
C 	C 	0.92627 0.09687 0.06636 0.40800
C 	C 	0.42586 0.40377 0.06685 0.41600
C 	C 	0.57373 0.59687 0.93364 0.41000
C 	C 	0.57414 0.40377 0.93315 0.41600
C 	C 	0.42627 0.59687 0.06636 0.41000
C 	C 	0.04808 0.50316 0.50744 0.03600
C 	C 	0.95192 0.50316 0.49256 0.03600
C 	C 	0.54808 0.00316 0.50745 -0.01400
C 	C 	0.45192 0.00316 0.49257 -0.01400
C 	C 	0.02129 0.56801 0.51202 -0.02400
C 	C 	0.97354 0.43874 0.50502 -0.01800
C 	C 	0.97871 0.56801 0.48798 -0.02400
C 	C 	0.02646 0.43874 0.49498 -0.01800
C 	C 	0.52129 0.06801 0.51203 -0.02100
C 	C 	0.47354 0.93873 0.50502 0.03000
C 	C 	0.47870 0.06801 0.48799 -0.02100
C 	C 	0.52646 0.93873 0.49499 0.03000
C 	C 	0.12731 0.43916 0.49639 0.04600
C 	C 	0.88596 0.56538 0.45968 0.04400
C 	C 	0.87269 0.43916 0.50362 0.04600
C 	C 	0.11404 0.56538 0.54032 0.04400
C 	C 	0.62731 0.93916 0.49639 0.07900
C 	C 	0.38596 0.06538 0.45969 0.03500
C 	C 	0.37269 0.93915 0.50362 0.07900
C 	C 	0.61404 0.06538 0.54032 0.03400
C 	C 	0.17236 0.43678 0.51514 -0.16900
C 	C 	0.83475 0.56546 0.46034 -0.16800
C 	C 	0.82764 0.43678 0.48486 -0.16900
C 	C 	0.16525 0.56546 0.53966 -0.16800
C 	C 	0.67236 0.93678 0.51514 -0.09500
C 	C 	0.33475 0.06546 0.46035 -0.14200
C 	C 	0.32764 0.93678 0.48486 -0.09500
C 	C 	0.66525 0.06546 0.53966 -0.14200
C 	C 	0.19074 0.50039 0.53586 0.38700
C 	C 	0.80926 0.50039 0.46414 0.38700
C 	C 	0.69074 0.00039 0.53586 0.27200
C 	C 	0.30927 0.00039 0.46414 0.27200
C 	C 	0.09645 0.50248 0.51530 -0.03500
C 	C 	0.90355 0.50248 0.48470 -0.03500
C 	C 	0.59645 0.00248 0.51531 -0.07100
C 	C 	0.40354 0.00248 0.48470 -0.07100
C 	C 	0.61166 0.88165 0.45831 0.20800
C 	C 	0.42087 0.12518 0.43406 0.20100
C 	C 	0.38833 0.88165 0.54170 0.20800
C 	C 	0.57913 0.12518 0.56596 0.20100
C 	C 	0.11166 0.38165 0.45830 0.20300
C 	C 	0.92087 0.62518 0.43405 0.20000
C 	C 	0.88834 0.38165 0.54170 0.20300
C 	C 	0.07913 0.62518 0.56595 0.20000
Cu	Cu	0.20992 0.78529 0.49507 0.91700
Cu	Cu	0.79008 0.21471 0.50493 0.91500
Cu	Cu	0.79008 0.78529 0.50493 0.91700
Cu	Cu	0.20992 0.21471 0.49507 0.91500
Cu	Cu	0.70992 0.28529 0.49507 0.91500
Cu	Cu	0.29008 0.71471 0.50493 0.91600
Cu	Cu	0.29008 0.28529 0.50493 0.91500
Cu	Cu	0.70992 0.71471 0.49507 0.91600
Cu	Cu	0.49524 0.50000 0.92415 0.91700
Cu	Cu	0.50476 0.50000 0.07585 0.91700
Cu	Cu	0.99524 0.00000 0.92415 0.89400
Cu	Cu	0.00476 -0.00000 0.07585 0.89400
O 	O 	0.25504 0.86959 0.47848 -0.33000
O 	O 	0.74496 0.13041 0.52152 -0.35900
O 	O 	0.74496 0.86959 0.52152 -0.33000
O 	O 	0.25504 0.13041 0.47848 -0.35900
O 	O 	0.75504 0.36959 0.47848 -0.34300
O 	O 	0.24496 0.63041 0.52152 -0.35200
O 	O 	0.24496 0.36959 0.52152 -0.34300
O 	O 	0.75504 0.63041 0.47848 -0.35200
O 	O 	0.18205 0.79655 0.62444 -0.35300
O 	O 	0.81795 0.20345 0.37556 -0.38400
O 	O 	0.81795 0.79655 0.37556 -0.35300
O 	O 	0.18205 0.20345 0.62444 -0.38400
O 	O 	0.68205 0.29655 0.62444 -0.35600
O 	O 	0.31795 0.70345 0.37556 -0.38100
O 	O 	0.31795 0.29655 0.37556 -0.35600
O 	O 	0.68205 0.70345 0.62444 -0.38100
O 	O 	0.25053 0.76333 0.36721 -0.37100
O 	O 	0.74947 0.23667 0.63279 -0.35700
O 	O 	0.74947 0.76333 0.63279 -0.37100
O 	O 	0.25053 0.23667 0.36721 -0.35700
O 	O 	0.75053 0.26333 0.36721 -0.37600
O 	O 	0.24947 0.73667 0.63279 -0.35500
O 	O 	0.24947 0.26333 0.63279 -0.37600
O 	O 	0.75053 0.73667 0.36721 -0.35500
O 	O 	0.17726 0.69003 0.51371 -0.35000
O 	O 	0.82274 0.30997 0.48629 -0.34200
O 	O 	0.82274 0.69003 0.48629 -0.35000
O 	O 	0.17726 0.30997 0.51371 -0.34200
O 	O 	0.67726 0.19003 0.51371 -0.34900
O 	O 	0.32274 0.80997 0.48629 -0.33600
O 	O 	0.32274 0.19003 0.48629 -0.34900
O 	O 	0.67726 0.80997 0.51371 -0.33600
O 	O 	0.05164 0.92688 0.88509 -0.34200
O 	O 	0.94836 0.07312 0.11491 -0.39600
O 	O 	0.94836 0.92688 0.11491 -0.34200
O 	O 	0.05164 0.07312 0.88509 -0.39600
O 	O 	0.55164 0.42688 0.88509 -0.36700
O 	O 	0.44836 0.57312 0.11491 -0.38300
O 	O 	0.44836 0.42688 0.11491 -0.36700
O 	O 	0.55164 0.57312 0.88509 -0.38300
O 	O 	0.94062 0.92656 0.98676 -0.30900
O 	O 	0.05938 0.07344 0.01324 -0.35700
O 	O 	0.05938 0.92656 0.01324 -0.30900
O 	O 	0.94062 0.07344 0.98676 -0.35700
O 	O 	0.44062 0.42656 0.98676 -0.33400
O 	O 	0.55938 0.57344 0.01324 -0.34500
O 	O 	0.55938 0.42656 0.01324 -0.33400
O 	O 	0.44062 0.57344 0.98676 -0.34500
F 	F 	0.23452 0.49946 0.55121 -0.44500
F 	F 	0.76548 0.49946 0.44879 -0.44500
F 	F 	0.73452 0.99946 0.55120 -0.38500
F 	F 	0.26549 0.99946 0.44879 -0.38500
F 	F 	0.64752 0.83296 0.40397 -0.36900
F 	F 	0.41678 0.17777 0.38187 -0.37300
F 	F 	0.35247 0.83296 0.59604 -0.36900
F 	F 	0.58322 0.17778 0.61813 -0.37300
F 	F 	0.14752 0.33296 0.40396 -0.37300
F 	F 	0.91678 0.67777 0.38186 -0.36800
F 	F 	0.85248 0.33296 0.59604 -0.37300
F 	F 	0.08322 0.67777 0.61814 -0.36800
F 	F 	0.54631 0.82168 0.43023 -0.35400
F 	F 	0.49647 0.18678 0.42747 -0.36700
F 	F 	0.45369 0.82167 0.56977 -0.35400
F 	F 	0.50351 0.18677 0.57258 -0.36700
F 	F 	0.04631 0.32168 0.43023 -0.35900
F 	F 	0.99648 0.68678 0.42744 -0.36300
F 	F 	0.95369 0.32168 0.56977 -0.35900
F 	F 	0.00351 0.68678 0.57256 -0.36300
F 	F 	0.17748 0.62159 0.98059 -0.37600
F 	F 	0.79387 0.33158 0.04474 -0.36200
F 	F 	0.82251 0.62159 0.01941 -0.37600
F 	F 	0.20614 0.33161 0.95525 -0.36200
F 	F 	0.67746 0.12159 0.98062 -0.38300
F 	F 	0.29386 0.83160 0.04474 -0.35100
F 	F 	0.32251 0.12158 0.01942 -0.38300
F 	F 	0.70614 0.83160 0.95525 -0.35100
F 	F 	0.23711 0.86454 0.95411 -0.33500
F 	F 	0.73910 0.08745 0.06301 -0.36800
F 	F 	0.76289 0.86454 0.04588 -0.33600
F 	F 	0.26087 0.08746 0.93703 -0.36800
F 	F 	0.73712 0.36453 0.95410 -0.34700
F 	F 	0.23912 0.58746 0.06298 -0.35600
F 	F 	0.26290 0.36455 0.04587 -0.34700
F 	F 	0.76087 0.58746 0.93702 -0.35600
F 	F 	0.11501 0.82916 0.03891 -0.39900
F 	F 	0.86395 0.13408 0.97549 -0.41700
F 	F 	0.88499 0.82916 0.96108 -0.39900
F 	F 	0.13606 0.13407 0.02450 -0.41700
F 	F 	0.61501 0.32916 0.03892 -0.40600
F 	F 	0.36394 0.63407 0.97550 -0.41100
F 	F 	0.38499 0.32916 0.96108 -0.40600
F 	F 	0.63606 0.63407 0.02450 -0.41100
O 	O 	0.13713 0.88911 0.74710 -0.21300
C 	C 	0.17418 0.94577 0.72824 0.17300
H 	H 	0.21624 0.92588 0.69242 0.04000
H 	H 	0.16856 0.97349 0.79056 0.04900
C 	C 	0.16550 0.00012 0.66883 -0.34300
H 	H 	0.12424 0.02228 0.70351 0.12700
H 	H 	0.19481 0.04444 0.65304 0.12200
H 	H 	0.17115 0.97442 0.60565 0.19200
O 	O 	0.89903 0.17271 0.22783 -0.22900
C 	C 	0.93246 0.23354 0.20168 0.10600
H 	H 	0.90827 0.28356 0.22237 0.03800
H 	H 	0.95806 0.23413 0.12805 0.03800
C 	C 	0.96901 0.23186 0.24661 -0.20600
H 	H 	0.99421 0.18296 0.22649 0.12000
H 	H 	0.99559 0.27942 0.22645 0.11900
H 	H 	0.94458 0.23221 0.32029 0.11700
O 	O 	0.86287 0.88911 0.25290 -0.21300
C 	C 	0.82582 0.94577 0.27176 0.17300
H 	H 	0.78376 0.92588 0.30757 0.04000
H 	H 	0.83143 0.97349 0.20944 0.04900
C 	C 	0.83450 0.00012 0.33116 -0.34300
H 	H 	0.87575 0.02228 0.29649 0.12700
H 	H 	0.80518 0.04444 0.34695 0.12200
H 	H 	0.82885 0.97442 0.39435 0.19200
O 	O 	0.10097 0.17270 0.77217 -0.22900
C 	C 	0.06754 0.23353 0.79831 0.10600
H 	H 	0.09173 0.28355 0.77761 0.03800
H 	H 	0.04194 0.23413 0.87194 0.03800
C 	C 	0.03099 0.23184 0.75337 -0.20600
H 	H 	0.00580 0.18294 0.77350 0.12000
H 	H 	0.00440 0.27940 0.77353 0.11900
H 	H 	0.05542 0.23219 0.67970 0.11700
O 	O 	0.63713 0.38911 0.74710 -0.20700
C 	C 	0.67418 0.44577 0.72824 0.09500
H 	H 	0.71624 0.42588 0.69242 0.04800
H 	H 	0.66856 0.47349 0.79056 0.04600
C 	C 	0.66550 0.50012 0.66883 -0.20000
H 	H 	0.62424 0.52228 0.70351 0.11200
H 	H 	0.69482 0.54443 0.65304 0.10400
H 	H 	0.67115 0.47442 0.60565 0.12800
O 	O 	0.39903 0.67270 0.22783 -0.22500
C 	C 	0.43246 0.73353 0.20169 0.10600
H 	H 	0.40827 0.78355 0.22239 0.04300
H 	H 	0.45806 0.73413 0.12806 0.04100
C 	C 	0.46901 0.73184 0.24663 -0.20800
H 	H 	0.49420 0.68294 0.22650 0.12600
H 	H 	0.49560 0.77940 0.22647 0.12600
H 	H 	0.44458 0.73219 0.32030 0.12200
O 	O 	0.36287 0.38911 0.25290 -0.20700
C 	C 	0.32582 0.44577 0.27176 0.09500
H 	H 	0.28376 0.42588 0.30757 0.04800
H 	H 	0.33143 0.47349 0.20944 0.04600
C 	C 	0.33450 0.50012 0.33117 -0.20000
H 	H 	0.37576 0.52228 0.29649 0.11200
H 	H 	0.30518 0.54444 0.34696 0.10400
H 	H 	0.32885 0.47442 0.39435 0.12800
O 	O 	0.60097 0.67270 0.77217 -0.22500
C 	C 	0.56754 0.73354 0.79831 0.10600
H 	H 	0.59173 0.78355 0.77761 0.04300
H 	H 	0.54194 0.73413 0.87194 0.04100
C 	C 	0.53099 0.73184 0.75337 -0.20800
H 	H 	0.50580 0.68294 0.77350 0.12500
H 	H 	0.50440 0.77940 0.77353 0.12600
H 	H 	0.55542 0.73219 0.67970 0.12200
O 	O 	0.23147 0.68683 0.79080 -0.18300
C 	C 	0.20427 0.62607 0.78151 0.09900
H 	H 	0.19211 0.63362 0.72759 0.04900
H 	H 	0.16753 0.61385 0.84428 0.07700
C 	C 	0.24150 0.56188 0.75746 -0.20000
H 	H 	0.25370 0.55188 0.81085 0.15200
H 	H 	0.22058 0.51388 0.74993 0.12800
H 	H 	0.27786 0.57181 0.69350 0.12600
O 	O 	0.72795 0.23892 0.23878 -0.19400
C 	C 	0.69269 0.18090 0.27825 0.08800
H 	H 	0.70383 0.15046 0.32441 0.03000
H 	H 	0.69274 0.14387 0.22651 0.06000
C 	C 	0.63591 0.20893 0.33168 -0.19900
H 	H 	0.62355 0.23983 0.28764 0.14000
H 	H 	0.60791 0.16343 0.36072 0.12100
H 	H 	0.63381 0.24386 0.38657 0.12000
O 	O 	0.76853 0.68683 0.20920 -0.18300
C 	C 	0.79573 0.62607 0.21849 0.09900
H 	H 	0.80789 0.63362 0.27241 0.04900
H 	H 	0.83247 0.61385 0.15572 0.07700
C 	C 	0.75850 0.56188 0.24255 -0.20000
H 	H 	0.74630 0.55188 0.18915 0.15200
H 	H 	0.77942 0.51388 0.25008 0.12800
H 	H 	0.72215 0.57181 0.30650 0.12600
O 	O 	0.27202 0.23901 0.76125 -0.19400
C 	C 	0.30733 0.18103 0.72183 0.08900
H 	H 	0.29615 0.15041 0.67582 0.03000
H 	H 	0.30739 0.14414 0.77361 0.06000
C 	C 	0.36405 0.20913 0.66815 -0.19900
H 	H 	0.37644 0.24027 0.71199 0.14000
H 	H 	0.39211 0.16366 0.63923 0.12100
H 	H 	0.36605 0.24385 0.61316 0.12000
O 	O 	0.73147 0.18683 0.79080 -0.18500
C 	C 	0.70427 0.12607 0.78151 0.09600
H 	H 	0.69211 0.13361 0.72759 0.04600
H 	H 	0.66753 0.11385 0.84428 0.07300
C 	C 	0.74150 0.06188 0.75746 -0.19400
H 	H 	0.75371 0.05189 0.81085 0.14100
H 	H 	0.72058 0.01388 0.74993 0.11100
H 	H 	0.77786 0.07181 0.69350 0.11400
O 	O 	0.22798 0.73900 0.23875 -0.18900
C 	C 	0.19267 0.68102 0.27819 0.08800
H 	H 	0.20386 0.65040 0.32417 0.03400
H 	H 	0.19260 0.64414 0.22641 0.06600
C 	C 	0.13595 0.70913 0.33189 -0.19900
H 	H 	0.12355 0.74025 0.28807 0.14500
H 	H 	0.10790 0.66366 0.36083 0.12500
H 	H 	0.13397 0.74385 0.38686 0.12400
O 	O 	0.26853 0.18683 0.20920 -0.18500
C 	C 	0.29574 0.12607 0.21849 0.09600
H 	H 	0.30789 0.13362 0.27241 0.04600
H 	H 	0.33248 0.11385 0.15573 0.07300
C 	C 	0.25850 0.06188 0.24255 -0.19400
H 	H 	0.24630 0.05188 0.18915 0.14100
H 	H 	0.27943 0.01388 0.25008 0.11100
H 	H 	0.22215 0.07180 0.30650 0.11400
O 	O 	0.77202 0.73901 0.76125 -0.18900
C 	C 	0.80733 0.68102 0.72182 0.08800
H 	H 	0.79614 0.65040 0.67583 0.03400
H 	H 	0.80740 0.64414 0.77360 0.06600
C 	C 	0.86405 0.70913 0.66811 -0.19900
H 	H 	0.87645 0.74025 0.71193 0.14500
H 	H 	0.89210 0.66366 0.63917 0.12500
H 	H 	0.86603 0.74385 0.61314 0.12400
