data_crystal

_cell_length_a 10.88429
_cell_length_b 10.90627
_cell_length_c 18.62913
_cell_angle_alpha 90.45802
_cell_angle_beta  89.97455
_cell_angle_gamma 60.77000

_symmetry_space_group_name_	'P 1'
_symmetry_space_group_name_H-M	'P 1'

loop_
_symmetry_equiv_pos_as_xyz
  x,y,z

loop_
_atom_site_label
_atom_site_type_symbol
_atom_site_fract_x
_atom_site_fract_y
_atom_site_fract_z
_atom_site_charge
O 	O 	0.50711 0.25628 0.58030 -0.46300
O 	O 	0.28083 0.52719 0.57794 -0.50100
C 	C 	0.23726 0.64512 0.60914 0.46800
O 	O 	0.26136 0.73899 0.58427 -0.50700
O 	O 	0.53259 0.69478 0.57437 -0.54600
C 	C 	0.65251 0.62069 0.60224 0.41400
O 	O 	0.74447 0.50375 0.57700 -0.47700
O 	O 	0.69852 0.27723 0.57162 -0.53800
C 	C 	0.62844 0.22694 0.60180 0.46700
O 	O 	0.49853 0.25692 0.41928 -0.40400
O 	O 	0.27288 0.52778 0.42868 -0.52400
C 	C 	0.21539 0.65144 0.40403 0.45600
O 	O 	0.25278 0.73963 0.42325 -0.50200
O 	O 	0.52464 0.69537 0.42510 -0.55600
C 	C 	0.64158 0.62117 0.39269 0.44000
O 	O 	0.73589 0.50439 0.41598 -0.51400
O 	O 	0.69056 0.27782 0.42235 -0.48100
C 	C 	0.57869 0.29732 0.38815 0.33100
Cr	Cr	0.39301 0.39805 0.50148 1.54900
Cr	Cr	0.39882 0.70798 0.50163 1.53600
Cr	Cr	0.70814 0.39394 0.49685 1.53800
O 	O 	0.49999 0.49999 0.49998 -0.75500
C 	C 	0.55319 0.79452 0.78820 -0.03900
H 	H 	0.54830 0.89799 0.79684 0.00200
H 	H 	0.46529 0.79531 0.81919 0.02500
C 	C 	0.53456 0.77655 0.70803 -0.04200
H 	H 	0.43975 0.76385 0.70088 0.03700
H 	H 	0.51558 0.87289 0.67881 0.00600
H 	H 	0.81873 0.77758 0.78322 -0.00900
H 	H 	0.77067 0.77248 0.66585 -0.00700
C 	C 	0.81735 0.67809 0.77091 -0.05700
C 	C 	0.70095 0.53169 0.80040 -0.04100
C 	C 	0.69709 0.67283 0.81400 -0.09200
H 	H 	0.80241 0.44242 0.81878 0.04300
H 	H 	0.61462 0.52795 0.83069 0.03700
C 	C 	0.66827 0.64567 0.67792 -0.09600
C 	C 	0.79666 0.66917 0.68974 0.04100
C 	C 	0.68424 0.51530 0.72017 -0.03900
H 	H 	0.59016 0.50192 0.71138 0.03800
H 	H 	0.77662 0.41716 0.70097 0.05900
H 	H 	0.92094 0.59081 0.78777 0.02800
C 	C 	0.67590 0.15453 0.67026 -0.19500
C 	C 	0.69037 0.16634 0.82754 -0.18000
C 	C 	0.80235 0.12016 0.78342 0.02700
C 	C 	0.78413 0.15161 0.70627 0.04300
H 	H 	0.90844 0.05452 0.80330 0.04500
H 	H 	0.85797 0.17650 0.67978 0.02900
H 	H 	0.58476 0.23304 0.80724 0.09800
H 	H 	0.60832 0.12050 0.69625 0.13400
C 	C 	0.18443 0.66114 0.68236 -0.17400
C 	C 	0.19811 0.66132 0.84030 -0.19100
C 	C 	0.19723 0.55868 0.80072 0.03700
C 	C 	0.22630 0.54686 0.72358 0.05100
H 	H 	0.16664 0.48645 0.82390 0.07600
H 	H 	0.28150 0.44173 0.70047 0.06300
H 	H 	0.23599 0.72825 0.81747 0.08100
H 	H 	0.12690 0.76632 0.70528 0.09500
C 	C 	0.65020 0.64665 0.31717 -0.21200
C 	C 	0.63346 0.66415 0.15931 -0.23200
C 	C 	0.70849 0.54505 0.19512 0.03100
C 	C 	0.69302 0.53611 0.27200 0.01000
H 	H 	0.79493 0.45394 0.16939 0.01400
H 	H 	0.73044 0.43097 0.29262 0.02900
H 	H 	0.54160 0.75235 0.18342 0.07800
H 	H 	0.61207 0.75317 0.29857 0.05900
C 	C 	0.60004 0.26376 0.31290 -0.13900
C 	C 	0.63168 0.21392 0.16062 -0.19500
C 	C 	0.50849 0.25873 0.19452 0.04800
C 	C 	0.48955 0.30909 0.26877 0.01200
H 	H 	0.42582 0.24260 0.17137 0.05700
H 	H 	0.38292 0.37031 0.28960 0.04700
H 	H 	0.71085 0.23807 0.18123 0.09200
H 	H 	0.70759 0.19741 0.29465 0.09900
C 	C 	0.11493 0.68616 0.34624 -0.16700
C 	C 	0.04709 0.72365 0.19499 -0.24800
C 	C 	0.00484 0.83196 0.24099 0.25100
C 	C 	0.05873 0.81156 0.31439 -0.03900
H 	H 	0.94697 0.93909 0.22145 -0.19400
H 	H 	0.06853 0.89749 0.33838 0.04800
H 	H 	0.10844 0.61515 0.21155 0.12600
H 	H 	0.09731 0.60255 0.32592 0.10800
O 	O 	0.08919 0.82587 0.93232 -0.46700
O 	O 	0.81907 0.05396 0.93144 -0.46300
C 	C 	0.70352 0.10242 0.89753 0.43600
O 	O 	0.60707 0.07644 0.91646 -0.39800
O 	O 	0.64711 0.80655 0.91769 -0.56300
C 	C 	0.72149 0.68673 0.88957 0.41700
O 	O 	0.83708 0.59386 0.91530 -0.50900
O 	O 	0.06477 0.63608 0.93255 -0.45100
C 	C 	0.12027 0.70584 0.90777 0.44700
O 	O 	0.06825 0.82920 0.09294 -0.44300
O 	O 	0.79965 0.05704 0.08033 -0.48400
C 	C 	0.67263 0.11523 0.10128 0.44700
O 	O 	0.58613 0.07976 0.07708 -0.41800
O 	O 	0.62770 0.80963 0.06658 -0.60200
C 	C 	0.69211 0.68831 0.09450 0.45900
O 	O 	0.81614 0.59718 0.07592 -0.54800
O 	O 	0.04536 0.63917 0.08144 -0.44000
C 	C 	0.02279 0.74888 0.11916 0.40700
Cr	Cr	0.93795 0.93845 0.00894 1.41000
Cr	Cr	0.62618 0.93703 0.99475 1.49400
Cr	Cr	0.93779 0.62576 0.00141 1.47900
O 	O 	0.83398 0.83375 0.00170 -0.87100
N 	N 	0.92608 0.56077 0.65504 -0.01500
O 	O 	0.97282 0.59125 0.59741 -0.20300
O 	O 	0.99291 0.43321 0.67953 -0.16800
