data_crystal

_cell_length_a 7.24140
_cell_length_b 14.79671
_cell_length_c 22.56457
_cell_angle_alpha 89.99991
_cell_angle_beta  90.02102
_cell_angle_gamma 88.92433

_symmetry_space_group_name_	'P 1'
_symmetry_space_group_name_H-M	'P 1'

loop_
_symmetry_equiv_pos_as_xyz
  x,y,z

loop_
_atom_site_label
_atom_site_type_symbol
_atom_site_fract_x
_atom_site_fract_y
_atom_site_fract_z
_atom_site_charge
O 	O 	0.39081 0.84481 0.44734 -0.47300
O 	O 	0.10919 0.15519 0.94734 -0.47300
O 	O 	0.89081 0.65519 0.55266 -0.47400
O 	O 	0.60919 0.34481 0.05266 -0.47400
O 	O 	0.72055 0.65582 0.44042 -0.47500
O 	O 	0.77945 0.34418 0.94042 -0.47400
O 	O 	0.22055 0.84418 0.55958 -0.47700
O 	O 	0.27945 0.15582 0.05958 -0.47800
C 	C 	0.55363 0.62653 0.42618 0.33600
C 	C 	0.94633 0.37347 0.92618 0.33600
C 	C 	0.05079 0.87328 0.57381 0.33800
C 	C 	0.44927 0.12670 0.07380 0.33800
O 	O 	0.72053 0.84413 0.44042 -0.47900
O 	O 	0.77947 0.15587 0.94042 -0.47900
O 	O 	0.22053 0.65587 0.55958 -0.47400
O 	O 	0.27947 0.34413 0.05958 -0.47500
O 	O 	0.89083 0.84481 0.55266 -0.47100
O 	O 	0.60917 0.15519 0.05266 -0.47100
O 	O 	0.39083 0.65519 0.44734 -0.47200
O 	O 	0.10917 0.34481 0.94734 -0.47200
C 	C 	0.55077 0.87345 0.42631 0.34300
C 	C 	0.94917 0.12655 0.92632 0.34400
C 	C 	0.05372 0.62677 0.57397 0.34000
C 	C 	0.44633 0.37324 0.07396 0.34100
O 	O 	0.55731 0.74998 0.53682 -0.60900
O 	O 	0.94269 0.25002 0.03682 -0.60600
O 	O 	0.05731 0.75002 0.46318 -0.60900
O 	O 	0.44269 0.24998 0.96318 -0.60800
V 	V 	0.83216 0.74998 0.49317 1.80100
V 	V 	0.66784 0.25002 0.99317 1.80000
V 	V 	0.33216 0.75002 0.50683 1.80100
V 	V 	0.16784 0.24998 0.00683 1.80000
C 	C 	0.85559 0.60150 0.85748 -0.06600
C 	C 	0.64317 0.39835 0.35759 -0.06700
C 	C 	0.52246 0.89321 0.13604 -0.06700
C 	C 	0.98120 0.10700 0.63608 -0.06600
H 	H 	0.82724 0.54427 0.94412 0.03300
H 	H 	0.67149 0.45558 0.44425 0.03300
H 	H 	0.49496 0.95012 0.04907 0.03200
H 	H 	0.00911 0.05012 0.54912 0.03200
H 	H 	0.82390 0.72178 0.77110 0.04200
H 	H 	0.67402 0.27791 0.27129 0.04300
H 	H 	0.58569 0.76978 0.21879 0.04200
H 	H 	0.91902 0.23056 0.71879 0.04200
C 	C 	0.94687 0.44804 0.88271 -0.08000
C 	C 	0.55295 0.55197 0.38272 -0.08200
C 	C 	0.46406 0.05202 0.11684 -0.08300
C 	C 	0.03628 0.94793 0.61688 -0.08300
C 	C 	0.12794 0.46829 0.59807 0.01700
C 	C 	0.37341 0.53190 0.09792 0.01700
C 	C 	0.50891 0.03611 0.40722 0.01800
C 	C 	0.98879 0.96375 0.90721 0.01800
C 	C 	0.15332 0.39715 0.63759 -0.04600
C 	C 	0.34885 0.60320 0.13738 -0.04500
C 	C 	0.47871 0.10976 0.36999 -0.04500
C 	C 	0.01809 0.89002 0.87000 -0.04500
C 	C 	0.10822 0.40762 0.69722 -0.02600
C 	C 	0.39362 0.59271 0.19704 -0.02700
C 	C 	0.47292 0.09831 0.30874 -0.02600
C 	C 	0.02473 0.90149 0.80875 -0.02700
C 	C 	0.03144 0.48976 0.71889 -0.00900
C 	C 	0.46912 0.51035 0.21883 -0.00700
C 	C 	0.50092 0.01214 0.28273 -0.00600
C 	C 	0.99850 0.98779 0.78274 -0.00600
C 	C 	0.00398 0.56266 0.67775 0.05500
C 	C 	0.49590 0.43732 0.17775 0.05500
C 	C 	0.53410 0.93670 0.32135 0.05500
C 	C 	0.96641 0.06334 0.82135 0.05500
C 	C 	0.98289 0.50219 0.78005 -0.00800
C 	C 	0.51716 0.49785 0.28003 -0.01100
C 	C 	0.49585 0.99828 0.21981 -0.01200
C 	C 	0.00435 0.00168 0.71983 -0.01300
C 	C 	0.90776 0.58718 0.79827 0.03300
C 	C 	0.59140 0.41272 0.29835 0.03400
C 	C 	0.52547 0.90942 0.19732 0.03500
C 	C 	0.97690 0.09070 0.69735 0.03600
C 	C 	0.88266 0.65725 0.75731 -0.04300
C 	C 	0.61597 0.34255 0.25744 -0.04400
C 	C 	0.55981 0.83718 0.23595 -0.04400
C 	C 	0.94347 0.16304 0.73596 -0.04500
C 	C 	0.93060 0.64550 0.69816 -0.04800
C 	C 	0.56833 0.35433 0.19825 -0.04800
C 	C 	0.56308 0.85031 0.29689 -0.04600
C 	C 	0.93925 0.14986 0.79690 -0.04600
C 	C 	0.00290 0.43315 0.82378 -0.00100
C 	C 	0.49741 0.56693 0.32373 0.00100
C 	C 	0.46472 0.06923 0.17812 0.00400
C 	C 	0.03427 0.93062 0.67815 0.00400
C 	C 	0.87315 0.53232 0.89905 0.02000
C 	C 	0.62594 0.46758 0.39913 0.02100
C 	C 	0.49297 0.96394 0.09623 0.02200
C 	C 	0.00984 0.03620 0.59627 0.02000
C 	C 	0.05440 0.55140 0.61717 -0.09600
C 	C 	0.44588 0.44863 0.11714 -0.09600
C 	C 	0.53613 0.94938 0.38384 -0.09600
C 	C 	0.96350 0.05062 0.88384 -0.09500
H 	H 	0.05546 0.36647 0.81326 0.03700
H 	H 	0.44529 0.63367 0.31317 0.03700
H 	H 	0.44433 0.13857 0.19156 0.03400
H 	H 	0.05277 0.86115 0.69156 0.03400
H 	H 	0.16917 0.45899 0.55226 0.03400
H 	H 	0.33255 0.54125 0.05208 0.03400
H 	H 	0.50866 0.04664 0.45475 0.03300
H 	H 	0.98821 0.95318 0.95474 0.03300
H 	H 	0.13736 0.35035 0.72531 0.03700
H 	H 	0.36539 0.65015 0.22505 0.03800
H 	H 	0.44483 0.15825 0.28304 0.03700
H 	H 	0.05208 0.84147 0.78306 0.03700
H 	H 	0.21183 0.33355 0.62208 0.04100
H 	H 	0.29131 0.66695 0.12177 0.04100
H 	H 	0.45696 0.17642 0.38884 0.04000
H 	H 	0.03841 0.82326 0.88884 0.04000
H 	H 	0.90852 0.70203 0.66838 0.05500
H 	H 	0.58993 0.29771 0.16852 0.05500
H 	H 	0.58997 0.79202 0.32480 0.05100
H 	H 	0.91312 0.20823 0.82479 0.05100
H 	H 	0.79792 0.66619 0.87148 0.04700
H 	H 	0.70023 0.33357 0.37166 0.04700
H 	H 	0.54514 0.82553 0.11878 0.04700
H 	H 	0.96034 0.17482 0.61883 0.04700
