data_crystal

_cell_length_a 27.87502
_cell_length_b 8.66084
_cell_length_c 7.41383
_cell_angle_alpha 103.10533
_cell_angle_beta  93.95972
_cell_angle_gamma 92.52770

_symmetry_space_group_name_	'P 1'
_symmetry_space_group_name_H-M	'P 1'

loop_
_symmetry_equiv_pos_as_xyz
  x,y,z

loop_
_atom_site_label
_atom_site_type_symbol
_atom_site_fract_x
_atom_site_fract_y
_atom_site_fract_z
_atom_site_charge
C 	C 	0.49854 0.19950 0.45301 0.34500
C 	C 	0.50146 0.80050 0.54699 0.34500
C 	C 	0.10181 0.50518 0.48487 0.12500
C 	C 	0.89819 0.49482 0.51513 0.12500
C 	C 	0.12433 0.36314 0.41120 -0.13900
C 	C 	0.87567 0.63687 0.58879 -0.13900
C 	C 	0.09529 0.22301 0.33222 0.22900
C 	C 	0.90471 0.77699 0.66778 0.22900
C 	C 	0.13032 0.64951 0.55229 -0.14000
C 	C 	0.86968 0.35049 0.44771 -0.14000
C 	C 	0.35422 0.49925 0.50773 -0.14400
C 	C 	0.64578 0.50075 0.49227 -0.14400
C 	C 	0.97165 0.35497 0.43619 0.05200
C 	C 	0.02835 0.64503 0.56381 0.05200
C 	C 	0.97759 0.64141 0.57704 0.05300
C 	C 	0.02241 0.35859 0.42296 0.05300
C 	C 	0.94926 0.49713 0.50905 -0.05700
C 	C 	0.05074 0.50287 0.49095 -0.05700
C 	C 	0.94259 0.21203 0.38310 -0.12100
C 	C 	0.05741 0.78797 0.61690 -0.12100
C 	C 	0.89284 0.20842 0.38538 0.23100
C 	C 	0.10716 0.79158 0.61462 0.23100
C 	C 	0.40735 0.49901 0.50314 0.34000
C 	C 	0.59265 0.50099 0.49686 0.34000
C 	C 	0.04566 0.22275 0.33773 -0.12400
C 	C 	0.95434 0.77725 0.66226 -0.12400
C 	C 	0.49778 0.03149 0.42648 -0.10100
C 	C 	0.50222 0.96851 0.57352 -0.10100
C 	C 	0.17507 0.36735 0.41870 0.23900
C 	C 	0.82493 0.63266 0.58130 0.23900
C 	C 	0.18090 0.64588 0.55274 0.23800
C 	C 	0.81910 0.35413 0.44726 0.23800
C 	C 	0.28012 0.52425 0.66589 -0.14200
C 	C 	0.71988 0.47576 0.33410 -0.14200
C 	C 	0.33032 0.52017 0.67470 0.15400
C 	C 	0.66968 0.47984 0.32530 0.15400
C 	C 	0.32625 0.48108 0.33756 0.07100
C 	C 	0.67375 0.51892 0.66244 0.07100
C 	C 	0.27639 0.48460 0.33162 -0.11500
C 	C 	0.72361 0.51540 0.66838 -0.11500
C 	C 	0.25323 0.50621 0.49549 0.17200
C 	C 	0.74677 0.49379 0.50450 0.17200
Cu	Cu	0.50538 0.51738 0.68438 0.92500
Cu	Cu	0.49462 0.48262 0.31562 0.92500
H 	H 	0.34284 0.46358 0.20734 0.03500
H 	H 	0.65716 0.53642 0.79266 0.03500
H 	H 	0.46307 0.37527 0.94772 0.09000
H 	H 	0.53693 0.62473 0.05228 0.09000
H 	H 	0.25565 0.47028 0.19922 0.08900
H 	H 	0.74435 0.52971 0.80078 0.08900
H 	H 	0.73826 0.46107 0.20772 0.09700
H 	H 	0.26174 0.53894 0.79228 0.09700
H 	H 	0.95742 0.09801 0.34155 0.10000
H 	H 	0.04258 0.90199 0.65844 0.10000
H 	H 	0.02616 0.11308 0.26833 0.09800
H 	H 	0.97384 0.88692 0.73167 0.09800
H 	H 	0.49356 0.95938 0.28499 0.08800
H 	H 	0.50644 0.04061 0.71501 0.08800
N 	N 	0.20172 0.50657 0.48867 -0.19300
N 	N 	0.79828 0.49343 0.51133 -0.19300
N 	N 	0.48651 0.45643 0.03851 -0.18300
N 	N 	0.51349 0.54357 0.96149 -0.18300
O 	O 	0.50350 0.28612 0.61978 -0.38800
O 	O 	0.49650 0.71388 0.38022 -0.38800
O 	O 	0.49441 0.25678 0.30836 -0.38800
O 	O 	0.50559 0.74322 0.69164 -0.38800
O 	O 	0.43481 0.51470 0.65569 -0.38600
O 	O 	0.56519 0.48530 0.34431 -0.38600
O 	O 	0.42572 0.48535 0.34428 -0.38200
O 	O 	0.57428 0.51465 0.65572 -0.38200
O 	O 	0.19817 0.23374 0.36076 -0.14300
O 	O 	0.80183 0.76626 0.63924 -0.14300
O 	O 	0.79044 0.22074 0.38312 -0.15100
O 	O 	0.20956 0.77927 0.61688 -0.15100
Cl	Cl	0.11754 0.04221 0.21538 -0.27500
Cl	Cl	0.88246 0.95779 0.78461 -0.27500
N 	N 	0.64504 0.46755 0.14774 -0.15100
H 	H 	0.61981 0.54960 0.14021 0.10300
C 	C 	0.63100 0.30721 0.04525 -0.09000
H 	H 	0.61365 0.30960 0.90659 0.06700
H 	H 	0.60501 0.24988 0.12065 0.07100
H 	H 	0.66320 0.23597 0.02478 0.07000
N 	N 	0.35496 0.53247 0.85226 -0.15100
H 	H 	0.38019 0.45042 0.85980 0.10300
C 	C 	0.36900 0.69281 0.95474 -0.09000
H 	H 	0.38635 0.69042 0.09341 0.06700
H 	H 	0.33680 0.76405 0.97519 0.07000
H 	H 	0.39500 0.75012 0.87935 0.07100
Cl	Cl	0.86273 0.01806 0.30948 -0.26900
Cl	Cl	0.13727 0.98195 0.69051 -0.26900
