data_crystal

_cell_length_a 6.95038
_cell_length_b 17.57200
_cell_length_c 19.36109
_cell_angle_alpha 108.49789
_cell_angle_beta  89.22167
_cell_angle_gamma 90.56523

_symmetry_space_group_name_	'P 1'
_symmetry_space_group_name_H-M	'P 1'

loop_
_symmetry_equiv_pos_as_xyz
  x,y,z

loop_
_atom_site_label
_atom_site_type_symbol
_atom_site_fract_x
_atom_site_fract_y
_atom_site_fract_z
_atom_site_charge
O 	O 	0.49433 0.41572 0.41372 -0.48500
O 	O 	0.81933 0.43007 0.56021 -0.49700
O 	O 	0.99432 0.58428 0.58628 -0.47900
C 	C 	0.64928 0.41529 0.58187 0.37900
O 	O 	0.82373 0.40630 0.41267 -0.49200
O 	O 	0.99876 0.56034 0.43769 -0.48500
C 	C 	0.65538 0.38349 0.38506 0.38500
O 	O 	0.48989 0.43966 0.56231 -0.48200
O 	O 	0.66234 0.55056 0.50838 -0.63900
V 	V 	0.93537 0.49062 0.49845 1.81200
O 	O 	0.32875 0.56993 0.43979 -0.49500
C 	C 	0.16091 0.58528 0.41843 0.37100
O 	O 	0.32434 0.59370 0.58733 -0.48100
C 	C 	0.15542 0.61405 0.61662 0.38500
V 	V 	0.43594 0.50938 0.50155 1.81200
O 	O 	0.15910 0.44944 0.49162 -0.64300
C 	C 	0.24882 0.59723 0.76079 0.13200
C 	C 	0.30573 0.59267 0.82858 -0.10400
C 	C 	0.29094 0.65844 0.89070 0.01900
C 	C 	0.22560 0.73091 0.88613 -0.07700
C 	C 	0.18040 0.74050 0.81820 0.07000
C 	C 	0.19239 0.67271 0.75366 -0.01600
C 	C 	0.12792 0.81711 0.81463 -0.09700
C 	C 	0.10093 0.82839 0.74547 -0.00800
C 	C 	0.09547 0.75957 0.68193 0.07800
C 	C 	0.14483 0.68250 0.68545 -0.09300
C 	C 	0.08489 0.90634 0.73690 0.08100
C 	C 	0.03195 0.91239 0.66875 -0.11900
C 	C 	0.00796 0.84441 0.60828 0.11000
C 	C 	0.04678 0.76930 0.61451 -0.11400
H 	H 	0.35658 0.53639 0.83313 0.06100
H 	H 	0.32974 0.65319 0.94297 0.02500
H 	H 	0.21547 0.77975 0.93678 0.06500
H 	H 	0.01895 0.97020 0.66073 0.06300
H 	H 	0.03802 0.71854 0.56532 0.07500
C 	C 	0.99054 0.63075 0.32558 -0.01000
C 	C 	0.15272 0.63506 0.36949 -0.09000
C 	C 	0.30590 0.68683 0.36618 -0.01600
C 	C 	0.29739 0.73414 0.31992 0.00900
C 	C 	0.13525 0.72858 0.27537 -0.01000
C 	C 	0.98156 0.67654 0.27816 0.01200
C 	C 	0.44819 0.78691 0.31732 -0.04200
C 	C 	0.44013 0.83278 0.27010 -0.04200
C 	C 	0.28092 0.82679 0.22478 0.01100
C 	C 	0.12698 0.77494 0.22778 -0.01100
C 	C 	0.96500 0.76921 0.18312 0.01400
C 	C 	0.81373 0.71679 0.18602 -0.04300
C 	C 	0.82186 0.67087 0.23316 -0.04100
C 	C 	0.27293 0.87175 0.17658 -0.01300
C 	C 	0.11148 0.86672 0.13210 -0.08600
C 	C 	0.95743 0.81570 0.13617 -0.01200
H 	H 	0.87220 0.59072 0.32740 0.04600
H 	H 	0.43081 0.69096 0.40016 0.04600
H 	H 	0.57328 0.79224 0.35139 0.03900
H 	H 	0.55924 0.87255 0.26865 0.04100
H 	H 	0.39160 0.91148 0.17439 0.04800
H 	H 	0.83271 0.81129 0.10205 0.04900
H 	H 	0.68856 0.71150 0.15201 0.04200
H 	H 	0.70276 0.63110 0.23460 0.04000
C 	C 	0.65539 0.21754 0.89670 -0.01100
C 	C 	0.62368 0.13431 0.86922 -0.08600
C 	C 	0.58997 0.09815 0.79453 -0.01700
C 	C 	0.59279 0.14402 0.74681 0.00700
C 	C 	0.62428 0.22765 0.77456 -0.00600
C 	C 	0.65393 0.26467 0.84990 0.00900
C 	C 	0.56454 0.10778 0.67182 -0.04500
C 	C 	0.57018 0.15369 0.62443 -0.04200
C 	C 	0.60097 0.23697 0.65133 0.00700
C 	C 	0.62588 0.27432 0.72691 -0.00800
C 	C 	0.65230 0.35827 0.75490 0.00700
C 	C 	0.67863 0.39460 0.83001 -0.04200
C 	C 	0.68068 0.34819 0.87700 -0.04100
C 	C 	0.60811 0.28350 0.60408 -0.01500
C 	C 	0.63647 0.36691 0.63167 -0.08800
C 	C 	0.65334 0.40420 0.70720 -0.01600
H 	H 	0.67869 0.24557 0.95450 0.03800
H 	H 	0.56581 0.03391 0.77340 0.03500
H 	H 	0.53843 0.04378 0.64981 0.03500
H 	H 	0.54982 0.12405 0.56670 0.03600
H 	H 	0.59172 0.25502 0.54597 0.03600
H 	H 	0.66960 0.46883 0.72864 0.04100
H 	H 	0.69938 0.45894 0.85237 0.03800
H 	H 	0.70264 0.37770 0.93466 0.03900
H 	H 	0.81487 0.13165 0.42961 0.03300
C 	C 	0.55319 0.40764 0.24923 -0.05000
C 	C 	0.50208 0.42125 0.18483 -0.02200
C 	C 	0.48866 0.35745 0.12050 -0.02200
C 	C 	0.52623 0.27956 0.12011 -0.05100
C 	C 	0.57776 0.26376 0.18469 0.04900
C 	C 	0.59129 0.32912 0.25065 0.04700
C 	C 	0.61903 0.18466 0.18406 -0.11100
C 	C 	0.67330 0.17089 0.24947 0.04700
C 	C 	0.68687 0.23625 0.31543 0.04900
C 	C 	0.64560 0.31535 0.31605 -0.11100
C 	C 	0.71135 0.09236 0.25089 -0.05100
C 	C 	0.76247 0.07875 0.31531 -0.02300
C 	C 	0.77598 0.14256 0.37962 -0.02200
C 	C 	0.73847 0.22046 0.38001 -0.05100
H 	H 	0.56395 0.45946 0.29758 0.05300
H 	H 	0.47365 0.48172 0.18480 0.03500
H 	H 	0.44981 0.36836 0.07051 0.03400
H 	H 	0.51537 0.23212 0.06857 0.05500
H 	H 	0.70056 0.04054 0.20255 0.05100
H 	H 	0.79087 0.01828 0.31534 0.03400
H 	H 	0.74946 0.26791 0.43153 0.05500
O 	O 	0.77520 0.06047 0.93780 -0.48100
O 	O 	0.44111 0.09372 0.08735 -0.49400
O 	O 	0.26633 0.93963 0.06228 -0.48100
C 	C 	0.60939 0.11654 0.11504 0.38400
O 	O 	0.44575 0.06995 0.93982 -0.49500
O 	O 	0.27100 0.91570 0.91370 -0.48600
C 	C 	0.61516 0.08535 0.91864 0.37400
O 	O 	0.77053 0.08440 0.08638 -0.48400
O 	O 	0.60283 0.94951 0.99168 -0.64200
V 	V 	0.32971 0.00937 0.00155 1.80900
O 	O 	0.94099 0.90617 0.91257 -0.48500
C 	C 	0.11084 0.88515 0.88376 0.38000
O 	O 	0.93635 0.92994 0.06010 -0.48600
C 	C 	0.10404 0.91527 0.08205 0.37000
V 	V 	0.82916 0.99045 0.99831 1.81100
O 	O 	0.10591 0.05048 0.00832 -0.64400
N 	N 	0.96259 0.85188 0.53907 -0.15000
H 	H 	0.98425 0.80066 0.49532 0.08700
C 	C 	0.78088 0.88995 0.53563 -0.08600
H 	H 	0.75924 0.89192 0.47948 0.04700
H 	H 	0.77983 0.95254 0.57309 0.04800
H 	H 	0.66036 0.85541 0.54985 0.05200
O 	O 	0.25739 0.52746 0.70212 -0.21500
C 	C 	0.09986 0.47747 0.70654 0.08800
H 	H 	0.97163 0.49723 0.68362 0.02700
H 	H 	0.06380 0.47864 0.76321 0.01100
C 	C 	0.14485 0.39075 0.66308 -0.20100
H 	H 	0.26671 0.36947 0.68807 0.08700
H 	H 	0.02014 0.35142 0.66399 0.08000
H 	H 	0.17973 0.38510 0.60567 0.10300
N 	N 	0.14730 0.97647 0.79351 -0.14200
H 	H 	0.28588 0.97173 0.80982 0.09100
C 	C 	0.10575 0.05572 0.79010 -0.09700
H 	H 	0.13900 0.10120 0.84327 0.06800
H 	H 	0.95197 0.06037 0.77880 0.06400
H 	H 	0.19504 0.06869 0.74715 0.05100
