data_crystal

_cell_length_a 7.22244
_cell_length_b 12.09936
_cell_length_c 29.21934
_cell_angle_alpha 89.96929
_cell_angle_beta  90.00488
_cell_angle_gamma 89.99987

_symmetry_space_group_name_	'P 1'
_symmetry_space_group_name_H-M	'P 1'

loop_
_symmetry_equiv_pos_as_xyz
  x,y,z

loop_
_atom_site_label
_atom_site_type_symbol
_atom_site_fract_x
_atom_site_fract_y
_atom_site_fract_z
_atom_site_charge
O 	O 	0.64717 0.84918 0.20122 -0.45400
O 	O 	0.35283 0.15082 0.79878 -0.45300
O 	O 	0.35283 0.15082 0.70122 -0.45700
O 	O 	0.64717 0.84918 0.29878 -0.45700
O 	O 	0.14717 0.65082 0.29878 -0.45200
O 	O 	0.85283 0.34918 0.70122 -0.45200
O 	O 	0.85283 0.34918 0.79878 -0.45500
O 	O 	0.14717 0.65082 0.20122 -0.45500
O 	O 	0.31743 0.86221 0.29845 -0.46400
O 	O 	0.68257 0.13779 0.70155 -0.46400
O 	O 	0.68257 0.13779 0.79845 -0.46700
O 	O 	0.31743 0.86221 0.20155 -0.46700
O 	O 	0.81743 0.63779 0.20155 -0.46400
O 	O 	0.18257 0.36221 0.79845 -0.46400
O 	O 	0.18257 0.36221 0.70155 -0.46700
O 	O 	0.81743 0.63779 0.29845 -0.46700
H 	H 	0.00949 0.22431 0.45424 0.06100
H 	H 	0.99051 0.77569 0.54576 0.06100
H 	H 	0.92942 0.77229 0.95388 0.06100
H 	H 	0.07056 0.22771 0.04612 0.06100
H 	H 	0.50832 0.27573 0.04576 0.06100
H 	H 	0.49146 0.72431 0.95425 0.06100
H 	H 	0.42883 0.72776 0.54611 0.06100
H 	H 	0.57116 0.27224 0.45389 0.06100
C 	C 	0.48574 0.88770 0.31332 0.42300
C 	C 	0.51426 0.11230 0.68668 0.42300
C 	C 	0.51444 0.11229 0.81336 0.42100
C 	C 	0.48556 0.88771 0.18665 0.42100
C 	C 	0.98573 0.61230 0.18668 0.42000
C 	C 	0.01427 0.38770 0.81332 0.42000
C 	C 	0.01443 0.38771 0.68665 0.42000
C 	C 	0.98557 0.61229 0.31335 0.42000
H 	H 	0.04890 0.60902 0.69022 0.01400
H 	H 	0.95110 0.39098 0.30978 0.01400
H 	H 	0.99341 0.39011 0.19068 0.01400
H 	H 	0.00659 0.60989 0.80932 0.01400
H 	H 	0.54966 0.89103 0.80980 0.01400
H 	H 	0.45033 0.10897 0.19021 0.01500
H 	H 	0.49378 0.10990 0.30932 0.01400
H 	H 	0.50621 0.89011 0.69068 0.01400
H 	H 	0.96212 0.26116 0.37397 0.06900
H 	H 	0.03788 0.73884 0.62604 0.06900
H 	H 	0.97658 0.73853 0.87346 0.06900
H 	H 	0.02341 0.26147 0.12654 0.06900
H 	H 	0.46099 0.23880 0.12603 0.06900
H 	H 	0.53891 0.76121 0.87398 0.06900
H 	H 	0.47603 0.76149 0.62654 0.06900
H 	H 	0.52396 0.23852 0.37346 0.06900
O 	O 	0.48063 0.68063 0.25000 -0.59700
O 	O 	0.51937 0.31937 0.75000 -0.59700
O 	O 	0.98063 0.81937 0.25000 -0.59800
O 	O 	0.01937 0.18063 0.75000 -0.59800
V 	V 	0.20580 0.76286 0.25000 1.80000
V 	V 	0.79420 0.23714 0.75000 1.80000
V 	V 	0.70580 0.73714 0.25000 1.79900
V 	V 	0.29420 0.26286 0.75000 1.79900
H 	H 	0.04888 0.28330 0.53070 0.10500
H 	H 	0.95113 0.71670 0.46930 0.10500
H 	H 	0.90444 0.71121 0.03045 0.10900
H 	H 	0.09555 0.28879 0.96955 0.10900
H 	H 	0.54797 0.21678 0.96930 0.10500
H 	H 	0.45179 0.78327 0.03071 0.10500
H 	H 	0.40400 0.78887 0.46954 0.10900
H 	H 	0.59598 0.21114 0.53046 0.10900
C 	C 	0.99119 0.53521 0.35195 -0.21300
C 	C 	0.00881 0.46479 0.64805 -0.21300
C 	C 	0.00682 0.46443 0.85195 -0.21200
C 	C 	0.99318 0.53557 0.14805 -0.21200
C 	C 	0.49112 0.96480 0.14805 -0.21100
C 	C 	0.50887 0.03521 0.85195 -0.21100
C 	C 	0.50677 0.03557 0.64805 -0.21200
C 	C 	0.49323 0.96443 0.35195 -0.21200
C 	C 	0.97262 0.34900 0.38083 -0.12700
C 	C 	0.02739 0.65100 0.61917 -0.12700
C 	C 	0.98729 0.65077 0.88050 -0.12400
C 	C 	0.01270 0.34923 0.11950 -0.12400
C 	C 	0.47186 0.15099 0.11917 -0.12600
C 	C 	0.52807 0.84903 0.88084 -0.12600
C 	C 	0.48692 0.84924 0.61950 -0.12600
C 	C 	0.51308 0.15076 0.38050 -0.12600
C 	C 	0.96793 0.42238 0.34426 0.10100
C 	C 	0.03208 0.57762 0.65574 0.10100
C 	C 	0.00314 0.57794 0.84396 0.09800
C 	C 	0.99686 0.42206 0.15604 0.09800
C 	C 	0.46737 0.07759 0.15574 0.09900
C 	C 	0.53260 0.92242 0.84427 0.09900
C 	C 	0.50286 0.92206 0.65604 0.10000
C 	C 	0.49713 0.07794 0.34396 0.10000
C 	C 	0.01184 0.57584 0.39661 0.39800
C 	C 	0.98816 0.42416 0.60339 0.39800
C 	C 	0.00125 0.42303 0.89678 0.39400
C 	C 	0.99875 0.57696 0.10322 0.39400
C 	C 	0.51202 0.92420 0.10339 0.39500
C 	C 	0.48795 0.07582 0.89661 0.39500
C 	C 	0.50133 0.07697 0.60322 0.39600
C 	C 	0.49867 0.92304 0.39678 0.39600
C 	C 	0.99813 0.50349 0.43500 -0.14000
C 	C 	0.00187 0.49651 0.56500 -0.14000
C 	C 	0.00123 0.49623 0.93500 -0.14000
C 	C 	0.99876 0.50377 0.06499 -0.14000
C 	C 	0.49805 0.99653 0.06500 -0.13800
C 	C 	0.50185 0.00350 0.93500 -0.13800
C 	C 	0.50120 0.00377 0.56500 -0.13900
C 	C 	0.49879 0.99623 0.43500 -0.13900
C 	C 	0.98972 0.38821 0.42581 0.10600
C 	C 	0.01029 0.61179 0.57419 0.10600
C 	C 	0.98345 0.61108 0.92562 0.10600
C 	C 	0.01654 0.38892 0.07438 0.10600
C 	C 	0.48918 0.11179 0.07419 0.10500
C 	C 	0.51071 0.88823 0.92582 0.10500
C 	C 	0.48318 0.88894 0.57437 0.10500
C 	C 	0.51681 0.11106 0.42562 0.10500
C 	C 	0.99589 0.53987 0.48183 0.06300
C 	C 	0.00412 0.46013 0.51817 0.06300
C 	C 	0.01257 0.46069 0.98188 0.06200
C 	C 	0.98742 0.53931 0.01812 0.06200
C 	C 	0.49596 0.96015 0.01817 0.06200
C 	C 	0.50391 0.03989 0.98183 0.06200
C 	C 	0.51265 0.03930 0.51812 0.06200
C 	C 	0.48735 0.96070 0.48188 0.06200
C 	C 	0.01997 0.34737 0.50630 -0.02700
C 	C 	0.98003 0.65263 0.49370 -0.02700
C 	C 	0.94707 0.64982 0.00611 -0.02800
C 	C 	0.05291 0.35018 0.99389 -0.02800
C 	C 	0.51932 0.15267 0.99371 -0.02600
C 	C 	0.48050 0.84737 0.00630 -0.02600
C 	C 	0.44676 0.85022 0.49389 -0.02800
C 	C 	0.55323 0.14979 0.50611 -0.02800
C 	C 	0.00455 0.31224 0.46136 -0.07100
C 	C 	0.99546 0.68776 0.53865 -0.07100
C 	C 	0.95405 0.68558 0.96111 -0.07000
C 	C 	0.04593 0.31442 0.03889 -0.07000
C 	C 	0.50374 0.18779 0.03865 -0.07100
C 	C 	0.49609 0.81225 0.96136 -0.07100
C 	C 	0.45365 0.81446 0.53889 -0.07000
C 	C 	0.54634 0.18555 0.46111 -0.07000
F 	F 	0.94337 0.31580 0.59913 -0.44200
F 	F 	0.05663 0.68420 0.40087 -0.44200
F 	F 	0.01923 0.68784 0.09860 -0.44000
F 	F 	0.98078 0.31216 0.90140 -0.44000
F 	F 	0.44275 0.18413 0.90085 -0.44200
F 	F 	0.55726 0.81590 0.09914 -0.44200
F 	F 	0.51894 0.81215 0.40140 -0.44200
F 	F 	0.48106 0.18785 0.59860 -0.44200
