data_crystal

_cell_length_a 6.96026
_cell_length_b 14.65121
_cell_length_c 15.97638
_cell_angle_alpha 90.02565
_cell_angle_beta  90.68735
_cell_angle_gamma 89.45443

_symmetry_space_group_name_	'P 1'
_symmetry_space_group_name_H-M	'P 1'

loop_
_symmetry_equiv_pos_as_xyz
  x,y,z

loop_
_atom_site_label
_atom_site_type_symbol
_atom_site_fract_x
_atom_site_fract_y
_atom_site_fract_z
_atom_site_charge
O 	O 	0.63818 0.33392 0.16332 -0.48700
O 	O 	0.36182 0.66608 0.83668 -0.48400
O 	O 	0.30847 0.34496 0.33608 -0.47500
O 	O 	0.69153 0.65504 0.66392 -0.47100
O 	O 	0.13814 0.16611 0.33668 -0.46200
O 	O 	0.86186 0.83389 0.66332 -0.46600
C 	C 	0.47768 0.36779 0.36443 0.37200
C 	C 	0.52232 0.63227 0.63550 0.37500
O 	O 	0.30846 0.34495 0.16393 -0.49100
O 	O 	0.69154 0.65505 0.83607 -0.48700
O 	O 	0.13814 0.16610 0.16331 -0.48100
O 	O 	0.86186 0.83390 0.83669 -0.48800
C 	C 	0.47690 0.37122 0.13833 0.36900
C 	C 	0.52432 0.63796 0.86906 0.36700
O 	O 	0.63818 0.33393 0.33670 -0.46600
O 	O 	0.36182 0.66607 0.66330 -0.45900
O 	O 	0.47167 0.19134 0.25000 -0.63200
O 	O 	0.52833 0.80866 0.75000 -0.63400
V 	V 	0.19683 0.26090 0.25000 1.81000
V 	V 	0.80317 0.73910 0.75000 1.80900
O 	O 	0.80842 0.15507 0.16392 -0.48900
O 	O 	0.19158 0.84493 0.83608 -0.49500
C 	C 	0.97734 0.13285 0.13507 0.36700
C 	C 	0.02258 0.86737 0.86472 0.36700
O 	O 	0.80842 0.15508 0.33607 -0.47500
O 	O 	0.19158 0.84492 0.66393 -0.47600
C 	C 	0.97818 0.13517 0.36619 0.39300
C 	C 	0.02184 0.86458 0.63360 0.39600
V 	V 	0.69683 0.23913 0.25000 1.80900
V 	V 	0.30317 0.76087 0.75000 1.80900
O 	O 	0.97185 0.30869 0.25001 -0.63700
O 	O 	0.02815 0.69131 0.74999 -0.62800
H 	H 	0.03575 0.83743 0.24069 0.02400
H 	H 	0.96271 0.16219 0.75890 0.03200
C 	C 	0.96961 0.18855 0.54782 0.17300
C 	C 	0.02972 0.81114 0.45180 0.17100
C 	C 	0.96182 0.21083 0.63270 -0.10000
C 	C 	0.03688 0.78881 0.36691 -0.10200
C 	C 	0.96880 0.14370 0.69334 0.02700
C 	C 	0.03002 0.85595 0.30626 0.02400
C 	C 	0.98436 0.05286 0.67034 -0.07300
C 	C 	0.01505 0.94683 0.32930 -0.07400
C 	C 	0.99262 0.02623 0.58508 0.07000
C 	C 	0.00714 0.97345 0.41458 0.07000
C 	C 	0.98411 0.09497 0.52143 -0.01500
C 	C 	0.01563 0.90472 0.47824 -0.01500
C 	C 	0.00923 0.93220 0.56413 -0.07900
C 	C 	0.99075 0.06749 0.43557 -0.07900
H 	H 	0.95067 0.28152 0.65216 0.08700
H 	H 	0.04750 0.71810 0.34742 0.07800
H 	H 	0.98958 0.00383 0.72090 0.06400
H 	H 	0.00989 0.99588 0.27876 0.06200
C 	C 	0.17836 0.97599 0.96664 -0.00900
C 	C 	0.82146 0.02427 0.03306 -0.00300
H 	H 	0.31835 0.95829 0.94227 0.04300
H 	H 	0.68150 0.04177 0.05757 0.04500
C 	C 	0.16717 0.03928 0.03215 -0.00100
C 	C 	0.83267 0.96089 0.96762 -0.00900
H 	H 	0.29916 0.06865 0.05592 0.04800
H 	H 	0.70075 0.93128 0.94402 0.04600
C 	C 	0.98854 0.06443 0.06622 -0.08600
C 	C 	0.01127 0.93593 0.93342 -0.08500
C 	C 	0.32204 0.46632 0.47405 0.00200
C 	C 	0.67793 0.53425 0.52536 0.00100
H 	H 	0.18232 0.44160 0.45520 0.07200
H 	H 	0.81764 0.55890 0.54425 0.07300
C 	C 	0.33352 0.52793 0.54082 0.00700
C 	C 	0.66645 0.47267 0.45855 0.00600
H 	H 	0.20252 0.54714 0.57234 0.07400
H 	H 	0.79741 0.45345 0.42698 0.06800
C 	C 	0.51140 0.56360 0.56686 -0.06600
C 	C 	0.48860 0.43683 0.43268 -0.07100
C 	C 	0.32321 0.49027 0.04240 -0.02500
C 	C 	0.68018 0.54548 0.98713 -0.02300
H 	H 	0.18488 0.46782 0.06234 0.04600
H 	H 	0.81886 0.56600 0.96538 0.04500
C 	C 	0.33776 0.56538 0.98729 0.05500
C 	C 	0.66556 0.49217 0.06076 0.05100
C 	C 	0.51397 0.57919 0.94611 -0.09300
C 	C 	0.48890 0.44939 0.07762 -0.09400
C 	C 	0.18378 0.63981 0.98751 -0.07000
C 	C 	0.26226 0.73077 0.01987 -0.13700
H 	H 	0.33652 0.72067 0.08118 0.05800
H 	H 	0.36417 0.76144 0.97543 0.06400
H 	H 	0.14151 0.77962 0.02907 0.05900
H 	H 	0.10958 0.64758 0.92625 0.06200
H 	H 	0.07086 0.62372 0.03083 0.04000
C 	C 	0.82467 0.49422 0.12663 -0.07300
C 	C 	0.75712 0.53327 0.21045 -0.13200
H 	H 	0.69793 0.60331 0.20128 0.05800
H 	H 	0.64566 0.49075 0.23946 0.07200
H 	H 	0.88094 0.53691 0.25483 0.06600
H 	H 	0.89607 0.42697 0.13409 0.07000
H 	H 	0.93681 0.54019 0.10827 0.04100
Cl	Cl	0.96269 0.28446 0.48169 -0.34900
Cl	Cl	0.03689 0.71534 0.51799 -0.35100
