data_crystal

_cell_length_a 10.65070
_cell_length_b 10.58028
_cell_length_c 16.90631
_cell_angle_alpha 98.96572
_cell_angle_beta  98.73800
_cell_angle_gamma 61.27410

_symmetry_space_group_name_	'P 1'
_symmetry_space_group_name_H-M	'P 1'

loop_
_symmetry_equiv_pos_as_xyz
  x,y,z

loop_
_atom_site_label
_atom_site_type_symbol
_atom_site_fract_x
_atom_site_fract_y
_atom_site_fract_z
_atom_site_charge
C 	C 	0.35384 0.77678 0.39908 0.43600
C 	C 	0.73217 0.30347 0.23608 0.02300
C 	C 	0.78137 0.36951 0.31396 -0.15100
C 	C 	0.93774 0.26497 0.30139 0.29200
C 	C 	0.94712 0.37533 0.25693 0.09900
C 	C 	0.78780 0.48163 0.26918 -0.00300
C 	C 	0.73839 0.41578 0.19035 -0.00900
C 	C 	0.89683 0.30982 0.17915 -0.06200
C 	C 	0.47019 0.78506 0.22184 0.03800
C 	C 	0.41684 0.69149 0.25395 -0.02200
C 	C 	0.34457 0.81531 0.31932 -0.07900
C 	C 	0.40576 0.37412 0.35710 0.30100
C 	C 	0.39921 0.90743 0.28911 -0.04200
C 	C 	0.25786 0.97206 0.23418 0.22400
C 	C 	0.20428 0.87869 0.26552 -0.05200
C 	C 	0.27558 0.75588 0.19947 0.02900
C 	C 	0.32902 0.84830 0.16866 -0.15300
C 	C 	0.45798 0.24724 0.78110 -0.00000
C 	C 	0.40967 0.39955 0.75703 -0.02000
C 	C 	0.36129 0.35170 0.67335 -0.08100
C 	C 	0.40904 0.19984 0.69682 -0.01400
C 	C 	0.25673 0.25372 0.72158 -0.02200
C 	C 	0.71832 0.40915 0.38962 0.36800
C 	C 	0.20879 0.40629 0.69687 -0.01300
C 	C 	0.25710 0.45309 0.78238 -0.00000
C 	C 	0.30595 0.30070 0.80529 -0.11500
C 	C 	0.81777 0.34136 0.70954 -0.05200
C 	C 	0.84351 0.31466 0.77807 -0.06200
C 	C 	0.32232 0.84383 0.70550 -0.06500
C 	C 	0.28584 0.88945 0.77230 -0.01000
C 	C 	0.95444 0.28636 0.10311 0.35900
C 	C 	0.32165 0.30315 0.11943 0.42400
C 	C 	0.29688 0.88728 0.08727 0.43800
C 	C 	0.35343 0.77822 0.62590 0.43100
C 	C 	0.88375 0.29985 0.86098 0.41000
C 	C 	0.28346 0.25996 0.87728 0.35000
C 	C 	0.24752 0.94124 0.85264 0.34200
C 	C 	0.40272 0.37378 0.60154 0.34600
C 	C 	0.77502 0.37890 0.62952 0.43200
C 	C 	0.37316 0.36152 0.27266 -0.03600
C 	C 	0.34768 0.34375 0.20166 -0.10900
C 	C 	0.89171 0.19613 0.22326 -0.08000
Cr	Cr	0.60834 0.61104 0.52043 1.54900
Cr	Cr	0.28765 0.60112 0.48935 1.53600
Cr	Cr	0.60404 0.28787 0.49028 1.53000
Cr	Cr	0.05402 0.05270 0.97085 1.35700
Cr	Cr	0.05923 0.37512 0.99339 1.41500
Cr	Cr	0.37495 0.06120 0.99234 1.41200
H 	H 	0.19585 0.08781 0.22303 -0.13300
H 	H 	0.09748 0.91368 0.28618 0.06500
H 	H 	0.47303 0.45971 0.76941 0.02900
H 	H 	0.56108 0.18191 0.81605 0.00800
H 	H 	0.47150 0.09545 0.66121 0.00400
H 	H 	0.19309 0.19386 0.70912 -0.02600
H 	H 	0.10780 0.47174 0.66041 0.00900
H 	H 	0.19439 0.55565 0.81930 0.00800
H 	H 	0.93293 0.08035 0.20075 0.06600
H 	H 	0.03751 0.40180 0.26414 -0.06400
H 	H 	0.74687 0.59770 0.29119 0.06500
H 	H 	0.65746 0.47693 0.14244 0.07000
H 	H 	0.47940 0.57590 0.26510 0.03400
H 	H 	0.57590 0.74928 0.19946 0.05700
H 	H 	0.44783 0.97031 0.32786 0.11100
O 	O 	0.75122 0.49923 0.43517 -0.42300
O 	O 	0.29788 0.46908 0.56005 -0.51100
O 	O 	0.48972 0.25459 0.56481 -0.47600
O 	O 	0.72522 0.30423 0.58508 -0.53600
O 	O 	0.50001 0.50001 0.50002 -0.76700
O 	O 	0.17183 0.91388 0.05751 -0.37200
O 	O 	0.94069 0.18605 0.05473 -0.36100
O 	O 	0.92047 0.40572 0.07501 -0.30400
O 	O 	0.19669 0.37046 0.08412 -0.46800
O 	O 	0.41299 0.18075 0.09161 -0.43800
O 	O 	0.36662 0.94313 0.06576 -0.35500
O 	O 	0.47722 0.72760 0.43687 -0.52200
O 	O 	0.16051 0.90633 0.87921 -0.46300
O 	O 	0.93019 0.17905 0.88945 -0.52800
O 	O 	0.90914 0.39817 0.89671 -0.45500
O 	O 	0.18619 0.36346 0.91883 -0.58600
O 	O 	0.40167 0.17320 0.91331 -0.54900
O 	O 	0.35612 0.93613 0.90047 -0.46100
O 	O 	0.16274 0.16301 0.98553 -0.96100
O 	O 	0.25865 0.74512 0.41147 -0.49200
O 	O 	0.29707 0.46724 0.39596 -0.49500
O 	O 	0.48883 0.25261 0.38779 -0.46600
O 	O 	0.72440 0.30239 0.42098 -0.49900
O 	O 	0.75210 0.50121 0.61219 -0.44500
O 	O 	0.47804 0.72944 0.60097 -0.50200
O 	O 	0.25953 0.74711 0.58849 -0.49200
H 	H 	0.64465 0.27332 0.22875 0.03200
H 	H 	0.22695 0.69249 0.16122 0.04100
O 	O 	0.04030 0.19000 0.36209 -0.42100
H 	H 	0.00395 0.13093 0.38140 0.08300
