data_crystal

_cell_length_a 27.79957
_cell_length_b 8.67101
_cell_length_c 7.42426
_cell_angle_alpha 102.98779
_cell_angle_beta  94.28557
_cell_angle_gamma 92.47329

_symmetry_space_group_name_	'P 1'
_symmetry_space_group_name_H-M	'P 1'

loop_
_symmetry_equiv_pos_as_xyz
  x,y,z

loop_
_atom_site_label
_atom_site_type_symbol
_atom_site_fract_x
_atom_site_fract_y
_atom_site_fract_z
_atom_site_charge
C 	C 	0.49853 0.19958 0.45314 0.34200
C 	C 	0.86872 0.36027 0.41243 -0.21100
C 	C 	0.35405 0.49347 0.50799 -0.14800
C 	C 	0.64595 0.50663 0.49203 -0.14800
C 	C 	0.97115 0.35448 0.44529 0.08300
C 	C 	0.02885 0.64559 0.55498 0.08300
C 	C 	0.97760 0.64746 0.53411 0.01100
C 	C 	0.02240 0.35260 0.46612 0.01100
C 	C 	0.94905 0.50176 0.48096 -0.06300
C 	C 	0.05095 0.49831 0.51928 -0.06200
C 	C 	0.94097 0.21348 0.38791 -0.21100
C 	C 	0.50147 0.80042 0.54686 0.34200
C 	C 	0.05904 0.78659 0.61242 -0.21100
C 	C 	0.89096 0.21603 0.37201 0.40700
C 	C 	0.10904 0.78404 0.62832 0.40700
C 	C 	0.40728 0.49748 0.50172 0.34100
C 	C 	0.59272 0.50257 0.49829 0.34100
C 	C 	0.04638 0.20934 0.43657 -0.04800
C 	C 	0.95362 0.79073 0.56360 -0.04700
C 	C 	0.49782 0.03168 0.42666 -0.09900
C 	C 	0.50218 0.96832 0.57334 -0.09900
C 	C 	0.17525 0.35178 0.50941 0.20800
C 	C 	0.10227 0.49663 0.53614 0.12500
C 	C 	0.82476 0.64829 0.49070 0.20800
C 	C 	0.18193 0.63433 0.59439 0.25900
C 	C 	0.81808 0.36574 0.40590 0.25900
C 	C 	0.28590 0.53752 0.69787 -0.11900
C 	C 	0.71410 0.46204 0.30227 -0.11900
C 	C 	0.33550 0.53939 0.68241 0.07100
C 	C 	0.66450 0.46016 0.31770 0.07100
C 	C 	0.32115 0.44351 0.34636 0.15700
C 	C 	0.67884 0.55724 0.65361 0.15700
C 	C 	0.27138 0.44295 0.36523 -0.15100
C 	C 	0.89774 0.50344 0.46409 0.12500
C 	C 	0.72861 0.55775 0.63480 -0.15100
C 	C 	0.25378 0.48966 0.53933 0.17000
C 	C 	0.74622 0.51043 0.46078 0.17000
C 	C 	0.33722 0.38877 0.15375 -0.23000
C 	C 	0.66274 0.61284 0.84608 -0.23000
C 	C 	0.12469 0.35152 0.49980 -0.08900
C 	C 	0.87531 0.64856 0.50036 -0.08900
C 	C 	0.09638 0.20927 0.45210 0.02600
C 	C 	0.90362 0.79080 0.54803 0.02600
C 	C 	0.13129 0.63980 0.58785 -0.21100
Cu	Cu	0.50538 0.51738 0.68438 0.92600
Cu	Cu	0.49462 0.48262 0.31562 0.92600
F 	F 	0.86466 0.07533 0.31625 -0.44800
F 	F 	0.13534 0.92474 0.68411 -0.44800
H 	H 	0.46204 0.37828 0.94824 0.09300
H 	H 	0.27240 0.57389 0.83313 0.08100
H 	H 	0.95462 0.09735 0.35272 0.11400
H 	H 	0.04538 0.90271 0.64765 0.11400
H 	H 	0.02784 0.09375 0.40099 0.05000
H 	H 	0.97217 0.90632 0.59914 0.05000
H 	H 	0.49372 0.95991 0.28535 0.09000
H 	H 	0.50628 0.04009 0.71465 0.09100
H 	H 	0.30614 0.34736 0.04826 0.09100
H 	H 	0.35677 0.48827 0.11317 0.09900
H 	H 	0.36076 0.28793 0.14901 0.10000
H 	H 	0.53796 0.62172 0.05176 0.09300
H 	H 	0.69380 0.65495 0.95144 0.09100
H 	H 	0.63913 0.71340 0.85002 0.10000
H 	H 	0.64327 0.51360 0.88746 0.09900
H 	H 	0.24575 0.40698 0.24391 0.09200
H 	H 	0.75423 0.59417 0.75610 0.09200
H 	H 	0.11280 0.09619 0.42490 0.07500
H 	H 	0.88721 0.90388 0.57519 0.07500
H 	H 	0.64057 0.42084 0.19215 0.03100
H 	H 	0.35944 0.57827 0.80799 0.03100
H 	H 	0.72761 0.42525 0.16708 0.08200
N 	N 	0.20262 0.49187 0.55256 -0.19400
N 	N 	0.79738 0.50821 0.44762 -0.19400
N 	N 	0.48651 0.45643 0.03851 -0.18100
N 	N 	0.51349 0.54357 0.96149 -0.18100
O 	O 	0.50350 0.28612 0.61978 -0.38300
O 	O 	0.80304 0.78691 0.52575 -0.16600
O 	O 	0.78967 0.23019 0.36275 -0.15300
O 	O 	0.21034 0.76987 0.63766 -0.15300
O 	O 	0.49650 0.71388 0.38022 -0.38300
O 	O 	0.49441 0.25678 0.30836 -0.38400
O 	O 	0.50559 0.74322 0.69164 -0.38400
O 	O 	0.43481 0.51470 0.65569 -0.38100
O 	O 	0.56519 0.48530 0.34431 -0.38100
O 	O 	0.42572 0.48535 0.34428 -0.38500
O 	O 	0.57428 0.51465 0.65572 -0.38500
O 	O 	0.19697 0.21317 0.47422 -0.16600
