data_crystal

_audit_creation_method 'AiiDA-DDEC plugin'

_cell_length_a        30.64335
_cell_length_b        30.64408
_cell_length_c        30.64248

_cell_angle_alpha     89.99525
_cell_angle_beta     90.27519
_cell_angle_gamma     90.22764

_symmetry_space_group_name_Hall 'P 1'
_symmetry_space_group_name_H-M  'P 1'

loop_
_symmetry_equiv_pos_as_xyz
 'x,y,z'

loop_
_atom_site_label
_atom_site_type_symbol
_atom_site_fract_x
_atom_site_fract_y
_atom_site_fract_z
_atom_site_charge
Zn         Zn      0.49896   0.05342   0.21540   0.95171
Zn         Zn      0.21069   0.49910   0.05109   0.96756
Zn         Zn      0.05111   0.21068   0.49904   0.96785
Zn         Zn      0.49921   0.94896   0.21056   0.96864
Zn         Zn      0.50079   0.05104   0.78944   0.96843
Zn         Zn      0.21528   0.49916   0.94667   0.95186
Zn         Zn      0.78471   0.50084   0.05333   0.95161
Zn         Zn      0.94678   0.21532   0.50048   0.95189
Zn         Zn      0.05322   0.78469   0.49954   0.95165
Zn         Zn      0.44891  -0.00066   0.28928   0.96714
Zn         Zn      0.55330  -0.00085   0.28470   0.95193
Zn         Zn      0.44669   0.00085   0.71529   0.95180
Zn         Zn      0.55109   0.00066   0.71071   0.96733
Zn         Zn     -0.00103   0.71063   0.55107   0.96855
Zn         Zn     -0.00053   0.71538   0.44669   0.95138
Zn         Zn      0.00054   0.28463   0.55332   0.95146
Zn         Zn      0.00103   0.28937   0.44893   0.96869
Zn         Zn      0.71530   0.44667  -0.00085   0.95142
Zn         Zn      0.71067   0.55109  -0.00092   0.96773
Zn         Zn      0.28933   0.44892   0.00092   0.96784
Zn         Zn      0.28470   0.55333   0.00085   0.95136
Zn         Zn      0.50104   0.94658   0.78460   0.95169
Zn         Zn      0.78931   0.50090   0.94892   0.96767
Zn         Zn      0.94889   0.78933   0.50096   0.96801
H          H       0.50002   0.94025   0.06891   0.12499
H          H       0.49998   0.05975   0.93108   0.12512
H          H       0.06920   0.50002   0.05975   0.12829
H          H       0.93080   0.49998   0.94026   0.12559
H          H       0.05973   0.06917   0.50000   0.12552
H          H       0.94027   0.93084   0.50000   0.12551
H          H       0.44026   0.00002   0.43079   0.12548
H          H       0.55975  -0.00002   0.56920   0.12586
H          H       0.00001   0.56891   0.55977   0.12511
H          H      -0.00001   0.43110   0.44024   0.12499
H          H       0.56917   0.55973   0.00002   0.12584
H          H       0.43083   0.44027  -0.00002   0.12570
H          H       0.50003   0.07927   0.08688   0.12580
H          H       0.49997   0.92073   0.91312   0.12558
H          H       0.08651   0.50003   0.92073   0.12627
H          H       0.91349   0.49997   0.07928   0.12633
H          H       0.92071   0.08655   0.50003   0.12626
H          H       0.07929   0.91346   0.49997   0.12624
H          H       0.57927   0.00002   0.41349   0.12640
H          H       0.42072  -0.00002   0.58651   0.12635
H          H       0.00003   0.58688   0.42073   0.12607
H          H      -0.00004   0.41313   0.57927   0.12615
H          H       0.58655   0.42071   0.00003   0.12618
H          H       0.41345   0.57930  -0.00003   0.12673
H          H       0.50000   0.09068   0.00647   0.11559
H          H       0.50000   0.90933   0.99353   0.11562
H          H       0.00604   0.50000   0.90932   0.11501
H          H       0.99395   0.50000   0.09069   0.11529
H          H       0.90932   0.00609   0.50000   0.11524
H          H       0.09068   0.99391   0.50000   0.11515
H          H       0.59068  -0.00000   0.49396   0.11535
H          H       0.40932   0.00000   0.50604   0.11504
H          H      -0.00000   0.50647   0.40933   0.11543
H          H      -0.00000   0.49354   0.59067   0.11554
H          H       0.50609   0.40932  -0.00000   0.11513
H          H       0.49390   0.59068   0.00000   0.11535
H          H       0.74956   0.80729   0.30722   0.11126
H          H       0.24962   0.19279   0.30744   0.11074
H          H       0.24954   0.80703   0.69265   0.11113
H          H       0.74960   0.19254   0.69302   0.11083
H          H       0.30720   0.75002   0.80719   0.10770
H          H       0.30684   0.24992   0.19302   0.11131
H          H       0.69271   0.25008   0.80714   0.11101
H          H       0.69235   0.74998   0.19234   0.11162
H          H       0.80716   0.30739   0.74998   0.11048
H          H       0.19274   0.30728   0.24996   0.11056
H          H       0.80687   0.69316   0.25005   0.11151
H          H       0.19229   0.69253   0.75003   0.10862
H          H       0.25043   0.19272   0.69279   0.11116
H          H       0.75038   0.80721   0.69256   0.11081
H          H       0.75046   0.19297   0.30735   0.11112
H          H       0.25040   0.80746   0.30698   0.11106
H          H       0.69280   0.24998   0.19281   0.10756
H          H       0.69316   0.75008   0.80698   0.11139
H          H       0.30729   0.74992   0.19286   0.11086
H          H       0.30765   0.25003   0.80767   0.11173
H          H       0.19284   0.69262   0.25002   0.11040
H          H       0.80726   0.69272   0.75004   0.11053
H          H       0.19313   0.30684   0.74996   0.11162
H          H       0.80771   0.30747   0.24998   0.10833
H          H       0.57673   0.83369   0.21758   0.11963
H          H       0.42198   0.16543   0.21937   0.12077
H          H       0.42266   0.83417   0.78121   0.12077
H          H       0.57729   0.16527   0.78166   0.12042
H          H       0.21866   0.57716   0.83403   0.12101
H          H       0.21832   0.42255   0.16548   0.12029
H          H       0.78228   0.42306   0.83383   0.11990
H          H       0.78065   0.57781   0.16527   0.12067
H          H       0.83366   0.21860   0.57757   0.12112
H          H       0.16558   0.21823   0.42264   0.12041
H          H       0.83397   0.78217   0.42300   0.12029
H          H       0.16495   0.78064   0.57732   0.12069
H          H       0.33346   0.07715   0.28237   0.11981
H          H       0.66530   0.92242   0.28072   0.12088
H          H       0.33403   0.92263   0.71874   0.12124
H          H       0.66517   0.07725   0.71840   0.12036
H          H       0.07660   0.71785   0.66570   0.11964
H          H       0.92219   0.71950   0.33493   0.12125
H          H       0.92250   0.28140   0.66632   0.12143
H          H       0.07739   0.28185   0.33430   0.12045
H          H       0.71938   0.33480   0.92232   0.12095
H          H       0.71771   0.66615   0.07680   0.11974
H          H       0.28169   0.33447   0.07760   0.12047
H          H       0.28135   0.66600   0.92274   0.12144
H          H       0.42327   0.16631   0.78243   0.11961
H          H       0.57802   0.83458   0.78064   0.12094
H          H       0.57733   0.16584   0.21879   0.12080
H          H       0.42271   0.83473   0.21834   0.12043
H          H       0.78134   0.42284   0.16597   0.12110
H          H       0.78167   0.57746   0.83452   0.12018
H          H       0.21772   0.57694   0.16617   0.11988
H          H       0.21935   0.42220   0.83473   0.12075
H          H       0.16635   0.78140   0.42244   0.12144
H          H       0.83443   0.78177   0.57737   0.12022
H          H       0.16604   0.21783   0.57701   0.12024
H          H       0.83505   0.21937   0.42268   0.12090
H          H       0.66654   0.92285   0.71763   0.11969
H          H       0.33470   0.07758   0.71928   0.12078
H          H       0.66595   0.07737   0.28127   0.12122
H          H       0.33483   0.92275   0.28161   0.12054
H          H       0.92340   0.28216   0.33430   0.11967
H          H       0.07781   0.28050   0.66507   0.12131
H          H       0.07751   0.71860   0.33369   0.12132
H          H       0.92261   0.71815   0.66571   0.12048
H          H       0.28062   0.66520   0.07768   0.12089
H          H       0.28229   0.33385   0.92321   0.11975
H          H       0.71831   0.66553   0.92240   0.12051
H          H       0.71865   0.33399   0.07727   0.12127
H          H       0.63309   0.77572   0.21984   0.11112
H          H       0.36589   0.22344   0.22057   0.11134
H          H       0.36605   0.77599   0.77954   0.11242
H          H       0.63365   0.22367   0.77972   0.11169
H          H       0.22020   0.63362   0.77591   0.11160
H          H       0.22021   0.36633   0.22368   0.11180
H          H       0.77989   0.36654   0.77577   0.11403
H          H       0.77939   0.63407   0.22343   0.11172
H          H       0.77570   0.22015   0.63383   0.11160
H          H       0.22356   0.22023   0.36651   0.11196
H          H       0.77570   0.77992   0.36643   0.11116
H          H       0.22321   0.77933   0.63386   0.11132
H          H       0.27553   0.13350   0.28010   0.11091
H          H       0.72331   0.86627   0.27951   0.11162
H          H       0.27579   0.86606   0.72032   0.11190
H          H       0.72350   0.13366   0.72042   0.11204
H          H       0.13317   0.72005   0.72402   0.11173
H          H       0.86578   0.72073   0.27666   0.11167
H          H       0.86614   0.27973   0.72420   0.11423
H          H       0.13348   0.27991   0.27627   0.11401
H          H       0.72048   0.27659   0.86611   0.11172
H          H       0.71995   0.72427   0.13326   0.11108
H          H       0.27963   0.27632   0.13385   0.11112
H          H       0.27965   0.72405   0.86622   0.11185
H          H       0.36690   0.22428   0.78016   0.11101
H          H       0.63410   0.77657   0.77944   0.11132
H          H       0.63395   0.22402   0.22046   0.11239
H          H       0.36635   0.77633   0.22029   0.11178
H          H       0.77980   0.36638   0.22409   0.11179
H          H       0.77979   0.63367   0.77632   0.11159
H          H       0.22011   0.63346   0.22423   0.11420
H          H       0.22061   0.36594   0.77658   0.11158
H          H       0.22430   0.77986   0.36617   0.11143
H          H       0.77644   0.77977   0.63349   0.11194
H          H       0.22431   0.22009   0.63358   0.11119
H          H       0.77680   0.22067   0.36615   0.11131
H          H       0.72447   0.86651   0.71990   0.11089
H          H       0.27668   0.13374   0.72050   0.11139
H          H       0.72420   0.13393   0.27967   0.11177
H          H       0.27650   0.86634   0.27958   0.11214
H          H       0.86683   0.27995   0.27598   0.11162
H          H       0.13421   0.27928   0.72335   0.11192
H          H       0.13386   0.72028   0.27580   0.11400
H          H       0.86652   0.72009   0.72373   0.11400
H          H       0.27953   0.72341   0.13389   0.11179
H          H       0.28005   0.27573   0.86674   0.11102
H          H       0.72037   0.72369   0.86615   0.11136
H          H       0.72035   0.27595   0.13379   0.11173
C          C       0.50001   0.00376   0.13128   0.59743
C          C       0.49999   0.99624   0.86872   0.59756
C          C       0.13124   0.50001   0.99623   0.59724
C          C       0.86875   0.49999   0.00377   0.59735
C          C       0.99622   0.13125   0.50003   0.59685
C          C       0.00378   0.86876   0.49997   0.59753
C          C       0.50377   0.00003   0.36875   0.59681
C          C       0.49623  -0.00004   0.63125   0.59704
C          C       0.00000   0.63129   0.49625   0.59740
C          C      -0.00001   0.36872   0.50375   0.59739
C          C       0.63125   0.49622   0.00001   0.59691
C          C       0.36875   0.50378  -0.00001   0.59701
C          C       0.50005   0.00887   0.08260  -0.03940
C          C       0.49995   0.99113   0.91739  -0.03937
C          C       0.08255   0.50005   0.99112  -0.03917
C          C       0.91744   0.49995   0.00888  -0.03942
C          C       0.99110   0.08256   0.50003  -0.03868
C          C       0.00890   0.91745   0.49998  -0.03903
C          C       0.50888   0.00005   0.41744  -0.03886
C          C       0.49112  -0.00005   0.58255  -0.03891
C          C       0.00004   0.58261   0.49114  -0.03961
C          C      -0.00004   0.41740   0.50886  -0.03960
C          C       0.58256   0.49111   0.00005  -0.03946
C          C       0.41744   0.50890  -0.00005  -0.03930
C          C       0.50000   0.97835   0.00903   0.07445
C          C       0.50000   0.02165   0.99097   0.07425
C          C       0.00913   0.50001   0.02166   0.07359
C          C       0.99086   0.50000   0.97835   0.07375
C          C       0.02165   0.00912   0.50000   0.07344
C          C       0.97835   0.99088   0.50000   0.07388
C          C       0.47835   0.00000   0.49086   0.07313
C          C       0.52165  -0.00001   0.50913   0.07346
C          C       0.00000   0.50904   0.52165   0.07352
C          C      -0.00000   0.49097   0.47835   0.07369
C          C       0.50912   0.52165   0.00000   0.07335
C          C       0.49088   0.47835  -0.00001   0.07395
C          C       0.50003   0.97295   0.05505  -0.13684
C          C       0.49997   0.02706   0.94495  -0.13719
C          C       0.05517   0.50003   0.02706  -0.13940
C          C       0.94482   0.49997   0.97295  -0.13718
C          C       0.02704   0.05516   0.50001  -0.13672
C          C       0.97296   0.94485   0.49999  -0.13672
C          C       0.47295   0.00003   0.44482  -0.13689
C          C       0.52705  -0.00003   0.55517  -0.13706
C          C       0.00002   0.55505   0.52707  -0.13604
C          C      -0.00002   0.44496   0.47293  -0.13626
C          C       0.55515   0.52704   0.00003  -0.13703
C          C       0.44484   0.47296  -0.00003  -0.13722
C          C       0.50004   0.05171   0.06457  -0.10472
C          C       0.49996   0.94829   0.93543  -0.10444
C          C       0.06432   0.50004   0.94828  -0.10633
C          C       0.93567   0.49996   0.05173  -0.10645
C          C       0.94827   0.06435   0.50003  -0.10708
C          C       0.05173   0.93565   0.49997  -0.10721
C          C       0.55172   0.00003   0.43567  -0.10679
C          C       0.44828  -0.00003   0.56432  -0.10674
C          C       0.00004   0.56457   0.44829  -0.10563
C          C      -0.00004   0.43544   0.55171  -0.10559
C          C       0.56435   0.44827   0.00004  -0.10640
C          C       0.43564   0.55174  -0.00004  -0.10692
C          C       0.50001   0.05785   0.02005  -0.13549
C          C       0.49999   0.94215   0.97995  -0.13580
C          C       0.01977   0.50001   0.94214  -0.13396
C          C       0.98022   0.49999   0.05786  -0.13394
C          C       0.94214   0.01981   0.50001  -0.13355
C          C       0.05786   0.98020   0.49999  -0.13317
C          C       0.55786   0.00001   0.48022  -0.13370
C          C       0.44214  -0.00001   0.51978  -0.13375
C          C       0.00001   0.52006   0.44215  -0.13469
C          C      -0.00001   0.47995   0.55785  -0.13464
C          C       0.51981   0.44214   0.00001  -0.13413
C          C       0.48019   0.55786  -0.00001  -0.13370
C          C       0.58339   0.91623   0.24925   0.59569
C          C       0.41597   0.08352   0.25071   0.59467
C          C       0.41622   0.91622   0.74998   0.59310
C          C       0.58333   0.08334   0.75003   0.59813
C          C       0.25000   0.58379   0.91622   0.59232
C          C       0.25000   0.41653   0.08348   0.59555
C          C       0.75073   0.41660   0.91621   0.59445
C          C       0.74928   0.58380   0.08340   0.59513
C          C       0.91595   0.24998   0.58413   0.59357
C          C       0.08348   0.25003   0.41651   0.59664
C          C       0.91645   0.75123   0.41653   0.59662
C          C       0.08332   0.74870   0.58310   0.59679
C          C       0.41661   0.08379   0.75074   0.59593
C          C       0.58402   0.91648   0.74929   0.59452
C          C       0.58377   0.08380   0.25001   0.59400
C          C       0.41667   0.91666   0.24998   0.59798
C          C       0.75000   0.41621   0.08378   0.59262
C          C       0.75000   0.58347   0.91653   0.59539
C          C       0.24927   0.58341   0.08379   0.59470
C          C       0.25072   0.41620   0.91660   0.59501
C          C       0.08405   0.75003   0.41588   0.59298
C          C       0.91652   0.74997   0.58349   0.59656
C          C       0.08357   0.24881   0.58347   0.59663
C          C       0.91667   0.25133   0.41692   0.59634
C          C       0.61747   0.88164   0.24901  -0.05082
C          C       0.38137   0.11767   0.25099  -0.04919
C          C       0.38182   0.88186   0.74996  -0.05081
C          C       0.61776   0.11778   0.75007  -0.04964
C          C       0.24999   0.61810   0.88188  -0.05038
C          C       0.25000   0.38211   0.11793  -0.04650
C          C       0.75095   0.38244   0.88162  -0.04985
C          C       0.74904   0.61843   0.11753  -0.05024
C          C       0.88166   0.24998   0.61840  -0.05023
C          C       0.11784   0.25006   0.38212  -0.04690
C          C       0.88164   0.75102   0.38245  -0.05156
C          C       0.11732   0.74909   0.61797  -0.05195
C          C       0.38253   0.11836   0.75099  -0.05073
C          C       0.61863   0.88233   0.74900  -0.04929
C          C       0.61817   0.11815   0.25005  -0.05093
C          C       0.38224   0.88223   0.24994  -0.04958
C          C       0.75001   0.38190   0.11813  -0.05071
C          C       0.75000   0.61789   0.88208  -0.04659
C          C       0.24905   0.61756   0.11838  -0.04990
C          C       0.25096   0.38158   0.88247  -0.05034
C          C       0.11835   0.75002   0.38161  -0.04998
C          C       0.88216   0.74994   0.61788  -0.04694
C          C       0.11837   0.24899   0.61756  -0.05159
C          C       0.88268   0.25092   0.38203  -0.05183
C          C       0.68263   0.81659   0.24964   0.07626
C          C       0.31623   0.18298   0.25038   0.07462
C          C       0.31658   0.81668   0.74990   0.07601
C          C       0.68299   0.18308   0.75010   0.07630
C          C       0.24989   0.68317   0.81674   0.07648
C          C       0.24990   0.31683   0.18325   0.07512
C          C       0.75016   0.31714   0.81652   0.07504
C          C       0.74963   0.68358   0.18280   0.07480
C          C       0.81653   0.24993   0.68341   0.07593
C          C       0.18301   0.25008   0.31690   0.07562
C          C       0.81630   0.75033   0.31708   0.07551
C          C       0.18255   0.74970   0.68329   0.07609
C          C       0.31736   0.18342   0.75036   0.07648
C          C       0.68377   0.81703   0.74963   0.07455
C          C       0.68342   0.18332   0.25010   0.07579
C          C       0.31701   0.81692   0.24991   0.07632
C          C       0.75012   0.31683   0.18326   0.07659
C          C       0.75010   0.68318   0.81675   0.07532
C          C       0.24984   0.68286   0.18348   0.07521
C          C       0.25037   0.31642   0.81721   0.07460
C          C       0.18348   0.75007   0.31659   0.07567
C          C       0.81699   0.74992   0.68310   0.07573
C          C       0.18370   0.24967   0.68292   0.07542
C          C       0.81745   0.25030   0.31671   0.07611
C          C       0.71686   0.78260   0.24980   0.07000
C          C       0.28220   0.21725   0.25021   0.07125
C          C       0.28236   0.78251   0.74992   0.07106
C          C       0.71718   0.21733   0.75008   0.06953
C          C       0.24977   0.71728   0.78260   0.07080
C          C       0.24981   0.28262   0.21747   0.06990
C          C       0.74993   0.28283   0.78251   0.07143
C          C       0.74965   0.71762   0.21711   0.07158
C          C       0.78242   0.24996   0.71747   0.07012
C          C       0.21713   0.25004   0.28275   0.06987
C          C       0.78216   0.75020   0.28271   0.07145
C          C       0.21686   0.74980   0.71740   0.07080
C          C       0.28314   0.21741   0.75021   0.06973
C          C       0.71780   0.78276   0.74979   0.07148
C          C       0.71764   0.21748   0.25008   0.07119
C          C       0.28282   0.78268   0.24992   0.06950
C          C       0.75023   0.28272   0.21740   0.07062
C          C       0.75019   0.71738   0.78253   0.06997
C          C       0.25007   0.71718   0.21749   0.07130
C          C       0.25035   0.28238   0.78290   0.07164
C          C       0.21758   0.75004   0.28253   0.07027
C          C       0.78287   0.74996   0.71725   0.06978
C          C       0.21784   0.24980   0.71730   0.07124
C          C       0.78314   0.25020   0.28261   0.07100
C          C       0.74952   0.78223   0.28209  -0.18211
C          C       0.24964   0.21785   0.28232  -0.18153
C          C       0.24958   0.78198   0.71778  -0.18235
C          C       0.74972   0.21775   0.71799  -0.18146
C          C       0.28198   0.74995   0.78211  -0.17973
C          C       0.28181   0.24992   0.21805  -0.18269
C          C       0.71775   0.25009   0.78211  -0.18165
C          C       0.71742   0.75005   0.21756  -0.18271
C          C       0.78203   0.28224   0.74998  -0.18207
C          C       0.21771   0.28216   0.25005  -0.18110
C          C       0.78175   0.71813   0.24997  -0.18335
C          C       0.21744   0.71766   0.75002  -0.18058
C          C       0.25047   0.21777   0.71791  -0.18207
C          C       0.75036   0.78215   0.71768  -0.18173
C          C       0.75042   0.21802   0.28222  -0.18246
C          C       0.25028   0.78225   0.28201  -0.18143
C          C       0.71802   0.25005   0.21789  -0.17977
C          C       0.71819   0.75008   0.78195  -0.18271
C          C       0.28225   0.74992   0.21789  -0.18162
C          C       0.28257   0.24995   0.78245  -0.18257
C          C       0.21797   0.71776   0.25002  -0.18214
C          C       0.78229   0.71784   0.74996  -0.18120
C          C       0.21824   0.28187   0.75004  -0.18337
C          C       0.78256   0.28234   0.24999  -0.17997
C          C       0.60885   0.84028   0.23132  -0.08790
C          C       0.38992   0.15897   0.23300  -0.08895
C          C       0.39048   0.84055   0.76763  -0.08707
C          C       0.60932   0.15899   0.76798  -0.08960
C          C       0.23224   0.60935   0.84050  -0.08833
C          C       0.23206   0.39053   0.15912  -0.08990
C          C       0.76855   0.39096   0.84032  -0.08815
C          C       0.76705   0.60989   0.15886  -0.08780
C          C       0.84024   0.23221   0.60970  -0.08883
C          C       0.15908   0.23208   0.39061  -0.09037
C          C       0.84032   0.76851   0.39092  -0.08806
C          C       0.15860   0.76711   0.60946  -0.08778
C          C       0.34004   0.10921   0.26865  -0.08885
C          C       0.65881   0.89030   0.26708  -0.08725
C          C       0.34044   0.89049   0.73226  -0.08829
C          C       0.65891   0.10931   0.73215  -0.08879
C          C       0.10872   0.73155   0.65933  -0.08614
C          C       0.89010   0.73302   0.34123  -0.08821
C          C       0.89034   0.26775   0.65975  -0.08962
C          C       0.10939   0.26806   0.34083  -0.09045
C          C       0.73292   0.34115   0.89022  -0.08801
C          C       0.73141   0.65971   0.10894  -0.08797
C          C       0.26791   0.34089   0.10958  -0.09098
C          C       0.26773   0.65949   0.89057  -0.08851
C          C       0.39114   0.15973   0.76868  -0.08759
C          C       0.61008   0.84104   0.76700  -0.08898
C          C       0.60952   0.15947   0.23237  -0.08715
C          C       0.39067   0.84101   0.23202  -0.08978
C          C       0.76776   0.39065   0.15951  -0.08823
C          C       0.76794   0.60947   0.84089  -0.08979
C          C       0.23145   0.60904   0.15968  -0.08834
C          C       0.23295   0.39012   0.84115  -0.08780
C          C       0.15977   0.76779   0.39031  -0.08898
C          C       0.84092   0.76792   0.60940  -0.09040
C          C       0.15968   0.23149   0.60909  -0.08809
C          C       0.84141   0.23290   0.39054  -0.08802
C          C       0.65996   0.89079   0.73135  -0.08853
C          C       0.34119   0.10971   0.73293  -0.08745
C          C       0.65954   0.10952   0.26775  -0.08842
C          C       0.34109   0.89069   0.26785  -0.08877
C          C       0.89129   0.26845   0.34067  -0.08621
C          C       0.10990   0.26698   0.65878  -0.08816
C          C       0.10967   0.73226   0.34025  -0.08965
C          C       0.89061   0.73195   0.65918  -0.09047
C          C       0.26708   0.65885   0.10978  -0.08810
C          C       0.26859   0.34029   0.89107  -0.08779
C          C       0.73209   0.65912   0.89042  -0.09075
C          C       0.73227   0.34051   0.10944  -0.08848
C          C       0.64081   0.80811   0.23223  -0.14160
C          C       0.35807   0.19121   0.23325  -0.14060
C          C       0.35843   0.80830   0.76708  -0.14281
C          C       0.64128   0.19135   0.76731  -0.14095
C          C       0.23271   0.64131   0.80828  -0.14119
C          C       0.23268   0.35860   0.19143  -0.14117
C          C       0.76756   0.35892   0.80811  -0.14406
C          C       0.76677   0.64180   0.19112  -0.14148
C          C       0.80807   0.23270   0.64158  -0.14116
C          C       0.19129   0.23276   0.35872  -0.14148
C          C       0.80801   0.76759   0.35884  -0.14108
C          C       0.19088   0.76682   0.64149  -0.14111
C          C       0.30787   0.14120   0.26775  -0.14057
C          C       0.69101   0.85845   0.26682  -0.14168
C          C       0.30817   0.85847   0.73276  -0.14115
C          C       0.69124   0.14131   0.73285  -0.14208
C          C       0.14075   0.73242   0.69166  -0.14268
C          C       0.85809   0.73327   0.30890  -0.14156
C          C       0.85840   0.26720   0.69187  -0.14262
C          C       0.14125   0.26740   0.30859  -0.14336
C          C       0.73311   0.30886   0.85834  -0.14128
C          C       0.73230   0.69194   0.14095  -0.14076
C          C       0.26718   0.30859   0.14153  -0.13989
C          C       0.26716   0.69167   0.85857  -0.14095
C          C       0.35918   0.19190   0.76778  -0.14133
C          C       0.64193   0.80880   0.76675  -0.14067
C          C       0.64157   0.19171   0.23292  -0.14262
C          C       0.35872   0.80865   0.23269  -0.14134
C          C       0.76729   0.35869   0.19172  -0.14108
C          C       0.76731   0.64140   0.80857  -0.14137
C          C       0.23244   0.64108   0.19189  -0.14397
C          C       0.23323   0.35821   0.80888  -0.14140
C          C       0.19194   0.76731   0.35842  -0.14063
C          C       0.80871   0.76724   0.64128  -0.14153
C          C       0.19199   0.23241   0.64116  -0.14129
C          C       0.80913   0.23318   0.35852  -0.14108
C          C       0.69213   0.85881   0.73225  -0.14075
C          C       0.30898   0.14156   0.73319  -0.14172
C          C       0.69182   0.14154   0.26725  -0.14082
C          C       0.30876   0.85869   0.26715  -0.14208
C          C       0.85925   0.26758   0.30834  -0.14273
C          C       0.14191   0.26673   0.69110  -0.14156
C          C       0.14161   0.73280   0.30813  -0.14261
C          C       0.85875   0.73260   0.69142  -0.14314
C          C       0.26689   0.69114   0.14166  -0.14135
C          C       0.26770   0.30806   0.85905  -0.14075
C          C       0.73281   0.69141   0.85847  -0.14007
C          C       0.73285   0.30833   0.14143  -0.14101
O          O       0.50000   0.03931   0.15305  -0.54715
O          O       0.14750   0.49997   0.03485  -0.54649
O          O       0.03483   0.14748   0.49997  -0.54546
O          O       0.46515   0.00002   0.35249  -0.54594
O          O       0.53930   0.00003   0.34710  -0.54735
O          O       0.46070  -0.00003   0.65289  -0.54772
O          O       0.53485  -0.00002   0.64751  -0.54575
O          O      -0.00007   0.64744   0.53482  -0.54548
O          O       0.00004   0.65305   0.46066  -0.54799
O          O      -0.00004   0.34696   0.53934  -0.54775
O          O       0.00007   0.35256   0.46519  -0.54577
O          O       0.65291   0.46069   0.00002  -0.54691
O          O       0.64748   0.53484  -0.00004  -0.54616
O          O       0.35251   0.46516   0.00004  -0.54665
O          O       0.34708   0.53931  -0.00002  -0.54663
O          O       0.54997   0.91103   0.22461  -0.55533
O          O       0.44824   0.09075   0.22526  -0.54263
O          O       0.45040   0.90882   0.77285  -0.54703
O          O       0.55183   0.08843   0.77684  -0.54941
O          O       0.22714   0.54958   0.90879  -0.54742
O          O       0.22325   0.44812   0.08855  -0.54881
O          O       0.77530   0.45002   0.91104  -0.55429
O          O       0.77462   0.55148   0.09073  -0.54235
O          O       0.90839   0.22712   0.54997  -0.54621
O          O       0.08859   0.22318   0.44816  -0.54965
O          O       0.91091   0.77529   0.45013  -0.55397
O          O       0.09096   0.77260   0.54975  -0.54464
O          O       0.41096   0.05019   0.27535  -0.55497
O          O       0.58842   0.05179   0.72315  -0.54863
O          O       0.04966   0.72466   0.58904  -0.55448
O          O       0.05188   0.27682   0.41141  -0.54978
O          O       0.72469   0.58896   0.04997  -0.55436
O          O       0.27675   0.41144   0.05189  -0.54939
O          O       0.45003   0.08897   0.77539  -0.55528
O          O       0.55176   0.90925   0.77474  -0.54242
O          O       0.54959   0.09119   0.22714  -0.54736
O          O       0.44818   0.91157   0.22318  -0.54958
O          O       0.77286   0.45043   0.09122  -0.54733
O          O       0.77676   0.55188   0.91145  -0.54889
O          O       0.22470   0.54998   0.08896  -0.55435
O          O       0.22538   0.44853   0.90927  -0.54235
O          O       0.09162   0.77288   0.45004  -0.54572
O          O       0.91141   0.77682   0.55184  -0.54960
O          O       0.08908   0.22471   0.54989  -0.55433
O          O       0.90903   0.22744   0.45028  -0.54440
O          O       0.40926   0.05141   0.72531  -0.54245
O          O       0.59114   0.04967   0.27283  -0.54808
O          O       0.05058   0.27310   0.59100  -0.54389
O          O       0.04975   0.72723   0.40861  -0.54740
O          O       0.27459   0.59071   0.05148  -0.54198
O          O       0.72713   0.40876   0.04956  -0.54710
O          O       0.49957  -0.00028   0.24995  -1.00805
O          O       0.50043   0.00028   0.75004  -1.00804
O          O       0.24999   0.49960   0.00042  -1.00767
O          O       0.74999   0.50040  -0.00042  -1.00771
O          O       0.00049   0.25000   0.49972  -1.00816
O          O      -0.00049   0.75001   0.50029  -1.00801
O          O       0.49999   0.96517   0.14742  -0.54655
O          O       0.50000   0.96070   0.84694  -0.54709
O          O       0.50001   0.03484   0.85258  -0.54664
O          O       0.15289   0.50003   0.96070  -0.54735
O          O       0.85250   0.50003   0.96515  -0.54641
O          O       0.84710   0.49997   0.03930  -0.54716
O          O       0.96067   0.15293   0.50008  -0.54765
O          O       0.96518   0.85252   0.50003  -0.54569
O          O       0.03933   0.84708   0.49992  -0.54796
O          O       0.59075   0.94862   0.27467  -0.54200
O          O       0.40885   0.95034   0.72715  -0.54750
O          O       0.94948   0.72700   0.40898  -0.54431
O          O       0.95026   0.27278   0.59140  -0.54736
O          O       0.72540   0.40929   0.94852  -0.54182
O          O       0.27287   0.59124   0.95044  -0.54671
O          O       0.58904   0.94981   0.72465  -0.55493
O          O       0.41157   0.94822   0.27685  -0.54829
O          O       0.95035   0.27536   0.41096  -0.55434
O          O       0.94812   0.72318   0.58859  -0.54970
O          O       0.27531   0.41104   0.95004  -0.55413
O          O       0.72325   0.58856   0.94811  -0.54906

