data_crystal

_cell_length_a 9.82830
_cell_length_b 10.43620
_cell_length_c 11.07600
_cell_angle_alpha 76.89400
_cell_angle_beta  76.29600
_cell_angle_gamma 65.99900

_symmetry_space_group_name_	'P 1'
_symmetry_space_group_name_H-M	'P 1'

loop_
_symmetry_equiv_pos_as_xyz
  x,y,z

loop_
_atom_site_label
_atom_site_type_symbol
_atom_site_fract_x
_atom_site_fract_y
_atom_site_fract_z
_atom_site_charge
Dy	Dy	0.94493 0.22808 0.82291 1.58900
Dy	Dy	0.05507 0.77192 0.17709 1.58900
H 	H 	0.30780 0.92220 0.50630 0.05300
H 	H 	0.45520 0.18490 0.60490 0.04900
H 	H 	0.43570 0.41490 0.70900 0.04300
H 	H 	0.74000 0.50230 0.42380 0.05500
H 	H 	0.60030 0.11820 0.82100 0.04200
H 	H 	0.64940 0.85960 0.15010 0.03200
H 	H 	0.69220 0.07780 0.49370 0.05400
H 	H 	0.54480 0.81510 0.39510 0.05000
H 	H 	0.56430 0.58510 0.29100 0.04300
H 	H 	0.26000 0.49770 0.57620 0.05500
H 	H 	0.39970 0.88180 0.17900 0.04200
H 	H 	0.35060 0.14040 0.84990 0.03200
C 	C 	0.35690 0.06510 0.56740 -0.05400
C 	C 	0.38460 0.95350 0.50390 -0.03300
C 	C 	0.47310 0.11060 0.56270 -0.02600
C 	C 	0.20540 0.13160 0.64560 0.30400
C 	C 	0.60800 0.44860 0.57930 -0.06200
C 	C 	0.46150 0.44870 0.62510 -0.02700
C 	C 	0.64390 0.50100 0.45440 -0.02800
C 	C 	0.72360 0.38930 0.66510 0.30700
C 	C 	0.64930 0.98610 0.98300 -0.14200
C 	C 	0.56000 0.07080 0.89270 -0.00800
C 	C 	0.58950 0.91590 0.08980 0.00300
C 	C 	0.80960 0.97680 0.96690 0.44900
C 	C 	0.64310 0.93490 0.43260 -0.05400
C 	C 	0.61540 0.04650 0.49610 -0.03300
C 	C 	0.52690 0.88940 0.43730 -0.02600
C 	C 	0.79460 0.86840 0.35440 0.30400
C 	C 	0.39200 0.55140 0.42070 -0.06200
C 	C 	0.53850 0.55130 0.37490 -0.02700
C 	C 	0.35610 0.49900 0.54560 -0.02800
C 	C 	0.27640 0.61070 0.33490 0.30700
C 	C 	0.35070 0.01390 0.01700 -0.14200
C 	C 	0.44000 0.92920 0.10730 -0.00800
C 	C 	0.41050 0.08410 0.91020 0.00300
C 	C 	0.19040 0.02320 0.03310 0.44900
O 	O 	0.17234 0.24758 0.68167 -0.38700
O 	O 	0.11670 0.06470 0.67817 -0.36600
O 	O 	0.68510 0.35000 0.77960 -0.41400
O 	O 	0.85800 0.37680 0.62319 -0.37800
O 	O 	0.85732 0.04738 0.87230 -0.48700
O 	O 	0.88400 0.89770 0.05058 -0.51500
O 	O 	0.82766 0.75242 0.31833 -0.38700
O 	O 	0.88330 0.93530 0.32183 -0.36600
O 	O 	0.31490 0.65000 0.22040 -0.41400
O 	O 	0.14200 0.62320 0.37681 -0.37800
O 	O 	0.14268 0.95262 0.12770 -0.48700
O 	O 	0.11600 0.10230 0.94942 -0.51500
