data_crystal

_cell_length_a 9.04200
_cell_length_b 9.04200
_cell_length_c 27.23100
_cell_angle_alpha 90.00000
_cell_angle_beta  90.00000
_cell_angle_gamma 90.00000

_symmetry_space_group_name_	'P 1'
_symmetry_space_group_name_H-M	'P 1'

loop_
_symmetry_equiv_pos_as_xyz
  x,y,z

loop_
_atom_site_label
_atom_site_type_symbol
_atom_site_fract_x
_atom_site_fract_y
_atom_site_fract_z
_atom_site_charge
Cd	Cd	0.18552 0.38249 0.19968 1.13100
C 	C 	0.48830 0.79750 0.30977 -0.28400
H 	H 	0.41660 0.82500 0.33250 0.12600
C 	C 	0.52990 0.89170 0.27268 0.19700
C 	C 	0.63800 0.85650 0.23874 -0.27300
H 	H 	0.66370 0.92240 0.21390 0.11300
C 	C 	0.70700 0.72000 0.24278 0.19300
C 	C 	0.66520 0.61910 0.27910 -0.26900
H 	H 	0.70960 0.52650 0.28090 0.10600
C 	C 	0.55660 0.65940 0.31237 0.19100
C 	C 	0.38680 0.09190 0.23068 0.09200
H 	H 	0.37850 0.04680 0.20010 -0.04600
C 	C 	0.36560 0.24600 0.29024 -0.04100
H 	H 	0.33850 0.32900 0.30830 -0.00000
C 	C 	0.44670 0.13100 0.30748 0.02100
H 	H 	0.48610 0.12050 0.33880 -0.01800
C 	C 	0.87800 0.54870 0.20016 0.06100
H 	H 	0.83650 0.46090 0.21140 -0.04600
C 	C 	0.01960 0.70370 0.16429 -0.03400
H 	H 	0.09670 0.74280 0.14580 0.00700
C 	C 	0.91480 0.78400 0.18694 0.00300
H 	H 	0.90530 0.88640 0.18680 -0.00200
C 	C 	0.59720 0.44490 0.36811 0.09100
H 	H 	0.69210 0.42140 0.35750 -0.05100
C 	C 	0.38310 0.55780 0.37602 -0.00500
H 	H 	0.30450 0.62320 0.37230 0.01700
C 	C 	0.39140 0.44260 0.40782 -0.00900
H 	H 	0.31790 0.41530 0.42990 -0.00000
N 	N 	0.32990 0.22070 0.24207 -0.27300
N 	N 	0.45860 0.03420 0.26942 -0.17000
N 	N 	0.99660 0.55650 0.17231 -0.23900
N 	N 	0.82450 0.68430 0.21029 -0.16100
N 	N 	0.51480 0.55850 0.35023 -0.16200
N 	N 	0.52480 0.37290 0.40239 -0.26500
Cd	Cd	0.81448 0.61751 0.69968 1.13200
C 	C 	0.51170 0.20250 0.80977 -0.28300
H 	H 	0.58340 0.17500 0.83250 0.12700
C 	C 	0.47010 0.10830 0.77268 0.19800
C 	C 	0.36200 0.14350 0.73874 -0.27300
H 	H 	0.33630 0.07760 0.71390 0.11200
C 	C 	0.29300 0.28000 0.74278 0.19300
C 	C 	0.33480 0.38090 0.77910 -0.26900
H 	H 	0.29040 0.47350 0.78090 0.10600
C 	C 	0.44340 0.34060 0.81237 0.19100
C 	C 	0.61320 0.90810 0.73068 0.09200
H 	H 	0.62150 0.95320 0.70010 -0.04600
C 	C 	0.63440 0.75400 0.79024 -0.04200
H 	H 	0.66150 0.67100 0.80830 -0.00000
C 	C 	0.55330 0.86900 0.80748 0.02100
H 	H 	0.51390 0.87950 0.83880 -0.01800
C 	C 	0.12200 0.45130 0.70016 0.06100
H 	H 	0.16350 0.53910 0.71140 -0.04600
C 	C 	0.98040 0.29630 0.66429 -0.03500
H 	H 	0.90330 0.25720 0.64580 0.00600
C 	C 	0.08520 0.21600 0.68694 0.00300
H 	H 	0.09470 0.11360 0.68680 -0.00300
C 	C 	0.40280 0.55510 0.86811 0.09100
H 	H 	0.30790 0.57860 0.85750 -0.05100
C 	C 	0.61690 0.44220 0.87602 -0.00500
H 	H 	0.69550 0.37680 0.87230 0.01700
C 	C 	0.60860 0.55740 0.90782 -0.00900
H 	H 	0.68210 0.58470 0.92990 -0.00200
N 	N 	0.67010 0.77930 0.74207 -0.27300
N 	N 	0.54140 0.96580 0.76942 -0.17000
N 	N 	0.00340 0.44350 0.67231 -0.23900
N 	N 	0.17550 0.31570 0.71029 -0.16100
N 	N 	0.48520 0.44150 0.85023 -0.16200
N 	N 	0.47520 0.62710 0.90239 -0.26600
Cd	Cd	0.61751 0.18552 0.44968 1.13200
C 	C 	0.20250 0.48830 0.55977 -0.28300
H 	H 	0.17500 0.41660 0.58250 0.12600
C 	C 	0.10830 0.52990 0.52268 0.19700
C 	C 	0.14350 0.63800 0.48874 -0.27300
H 	H 	0.07760 0.66370 0.46390 0.11200
C 	C 	0.28000 0.70700 0.49278 0.19300
C 	C 	0.38090 0.66520 0.52910 -0.26900
H 	H 	0.47350 0.70960 0.53090 0.10600
C 	C 	0.34060 0.55660 0.56237 0.19100
C 	C 	0.90810 0.38680 0.48068 0.09200
H 	H 	0.95320 0.37850 0.45010 -0.04600
C 	C 	0.75400 0.36560 0.54024 -0.04100
H 	H 	0.67100 0.33850 0.55830 -0.00000
C 	C 	0.86900 0.44670 0.55748 0.02100
H 	H 	0.87950 0.48610 0.58880 -0.01800
C 	C 	0.45130 0.87800 0.45016 0.06100
H 	H 	0.53910 0.83650 0.46140 -0.04600
C 	C 	0.29630 0.01960 0.41429 -0.03500
H 	H 	0.25720 0.09670 0.39580 0.00600
C 	C 	0.21600 0.91480 0.43694 0.00300
H 	H 	0.11360 0.90530 0.43680 -0.00300
C 	C 	0.55510 0.59720 0.61811 0.09100
H 	H 	0.57860 0.69210 0.60750 -0.05100
C 	C 	0.44220 0.38310 0.62602 -0.00500
H 	H 	0.37680 0.30450 0.62230 0.01700
C 	C 	0.55740 0.39140 0.65782 -0.00900
H 	H 	0.58470 0.31790 0.67990 -0.00000
N 	N 	0.77930 0.32990 0.49207 -0.27300
N 	N 	0.96580 0.45860 0.51942 -0.17000
N 	N 	0.44350 0.99660 0.42231 -0.23900
N 	N 	0.31570 0.82450 0.46029 -0.16100
N 	N 	0.44150 0.51480 0.60023 -0.16200
N 	N 	0.62710 0.52480 0.65239 -0.26500
Cd	Cd	0.38249 0.81448 0.94968 1.13100
C 	C 	0.79750 0.51170 0.05977 -0.28500
H 	H 	0.82500 0.58340 0.08250 0.12800
C 	C 	0.89170 0.47010 0.02268 0.20900
C 	C 	0.85650 0.36200 0.98874 -0.28400
H 	H 	0.92240 0.33630 0.96390 0.11500
C 	C 	0.72000 0.29300 0.99278 0.18500
C 	C 	0.61910 0.33480 0.02910 -0.25600
H 	H 	0.52650 0.29040 0.03090 0.10500
C 	C 	0.65940 0.44340 0.06237 0.19100
C 	C 	0.09190 0.61320 0.98068 0.08200
H 	H 	0.04680 0.62150 0.95010 -0.04400
C 	C 	0.24600 0.63440 0.04024 -0.02900
H 	H 	0.32900 0.66150 0.05830 -0.00300
C 	C 	0.13100 0.55330 0.05748 0.01700
H 	H 	0.12050 0.51390 0.08880 -0.01600
C 	C 	0.54870 0.12200 0.95016 0.06000
H 	H 	0.46090 0.16350 0.96140 -0.04800
C 	C 	0.70370 0.98040 0.91429 -0.03600
H 	H 	0.74280 0.90330 0.89580 0.00600
C 	C 	0.78400 0.08520 0.93694 0.00300
H 	H 	0.88640 0.09470 0.93680 -0.00300
C 	C 	0.44490 0.40280 0.11811 0.09100
H 	H 	0.42140 0.30790 0.10750 -0.05000
C 	C 	0.55780 0.61690 0.12602 -0.00500
H 	H 	0.62320 0.69550 0.12230 0.01800
C 	C 	0.44260 0.60860 0.15782 -0.00900
H 	H 	0.41530 0.68210 0.17990 -0.00000
N 	N 	0.22070 0.67010 0.99207 -0.27800
N 	N 	0.03420 0.54140 0.01942 -0.16500
N 	N 	0.55650 0.00340 0.92231 -0.23900
N 	N 	0.68430 0.17550 0.96029 -0.16100
N 	N 	0.55850 0.48520 0.10023 -0.16200
N 	N 	0.37290 0.47520 0.15239 -0.26500
