data_crystal

_cell_length_a 16.26150
_cell_length_b 16.49980
_cell_length_c 24.96310
_cell_angle_alpha 97.21070
_cell_angle_beta  108.83900
_cell_angle_gamma 60.76580

_symmetry_space_group_name_	'P 1'
_symmetry_space_group_name_H-M	'P 1'

loop_
_symmetry_equiv_pos_as_xyz
  x,y,z

loop_
_atom_site_label
_atom_site_type_symbol
_atom_site_fract_x
_atom_site_fract_y
_atom_site_fract_z
_atom_site_charge
Mn	Mn	0.81711 0.85477 0.07473 1.21200
Mn	Mn	0.77758 1.05188 0.01236 1.27500
Mn	Mn	0.17037 0.19799 0.89916 1.21000
Mn	Mn	0.22250 0.00672 0.97272 1.27100
Mn	Mn	0.00314 0.01963 -0.00792 1.23200
C 	C 	0.79886 0.99297 0.16943 0.09400
N 	N 	0.78491 0.97577 0.11432 -0.25600
N 	N 	0.76216 1.05317 0.08979 -0.19200
N 	N 	0.75793 1.11706 0.12794 -0.04700
N 	N 	0.78108 1.08130 0.17868 -0.07600
N 	N 	0.79995 0.20734 0.07069 -0.11300
N 	N 	0.82916 0.14262 0.03419 -0.22700
N 	N 	0.91389 0.12880 0.03023 -0.20000
N 	N 	0.94404 0.18198 0.06617 -0.09100
C 	C 	0.87253 0.23032 0.09150 0.09500
C 	C 	0.79957 0.96686 0.86327 0.11300
N 	N 	0.79658 1.04534 0.93684 -0.18500
N 	N 	0.74186 1.01939 0.89530 -0.07900
N 	N 	0.00009 0.93132 0.04079 -0.23800
N 	N 	0.91415 0.94062 0.03999 -0.18500
N 	N 	0.92781 0.86681 0.06416 -0.20200
N 	N 	0.02266 0.80935 0.08495 -0.13600
N 	N 	0.88400 1.01559 0.92981 -0.16700
N 	N 	0.88939 0.96330 0.88445 -0.08100
C 	C 	0.06844 0.84944 0.07065 0.09700
N 	N 	0.22444 0.06949 0.86828 -0.25500
N 	N 	0.24748 -0.00354 0.89766 -0.20500
N 	N 	0.28873 -0.08048 0.87125 -0.07200
N 	N 	0.29071 -0.05857 0.82270 -0.09700
N 	N 	0.21925 0.83878 0.92058 -0.09800
N 	N 	0.18016 0.90749 0.95263 -0.19300
N 	N 	0.09869 0.91237 0.95657 -0.18300
N 	N 	0.08277 0.84612 0.92680 -0.09500
N 	N 	0.12815 0.03117 0.10973 -0.10400
N 	N 	0.12160 0.02007 0.05512 -0.20600
N 	N 	0.19825 0.01883 0.04685 -0.22000
N 	N 	0.25617 0.03033 0.09452 -0.10500
N 	N 	1.00116 0.11086 0.94140 -0.20900
N 	N 	0.08358 0.10667 0.93981 -0.21300
N 	N 	0.06401 0.17711 0.90945 -0.22600
N 	N 	0.96806 0.22766 0.88691 -0.10200
Cl	Cl	0.72490 0.94324 -0.00754 -0.77700
Cl	Cl	0.25952 0.12572 0.98744 -0.76700
C 	C 	0.25008 0.03503 0.82098 0.08100
C 	C 	0.15851 0.80125 0.90442 0.10300
C 	C 	0.21213 0.03771 0.13340 0.08900
C 	C 	0.92845 0.18595 0.90614 0.10600
Mn	Mn	0.30824 0.28987 0.47447 1.21600
Mn	Mn	0.26822 0.51165 0.45456 1.27200
Mn	Mn	0.68334 0.74480 0.48325 1.22200
Mn	Mn	0.72964 0.52720 0.51846 1.27900
Mn	Mn	0.50140 0.51576 0.49061 1.26800
C 	C 	0.19125 0.40284 0.55570 0.09000
N 	N 	0.23884 0.39786 0.51965 -0.25100
N 	N 	0.22501 0.48231 0.51426 -0.19400
N 	N 	0.17171 0.53858 0.54683 -0.06000
N 	N 	0.14939 0.49051 0.57357 -0.09300
N 	N 	0.24465 0.65972 0.53454 -0.10800
N 	N 	0.29820 0.60705 0.50175 -0.21300
N 	N 	0.38343 0.60778 0.51690 -0.19800
N 	N 	0.38957 0.65781 0.56259 -0.09100
C 	C 	0.30164 0.69137 0.57215 0.10200
C 	C 	0.36911 0.46371 0.32756 0.10300
N 	N 	0.31701 0.53217 0.39691 -0.20500
N 	N 	0.28894 0.50456 0.34552 -0.09300
N 	N 	0.48539 0.41257 0.51634 -0.23300
N 	N 	0.40482 0.40583 0.48944 -0.19800
N 	N 	0.41944 0.32212 0.49790 -0.21400
N 	N 	0.50786 0.27339 0.53368 -0.12100
N 	N 	0.40985 0.51456 0.40990 -0.18800
N 	N 	0.44424 0.47087 0.36738 -0.08600
C 	C 	0.54872 0.33071 0.54699 0.09800
N 	N 	0.74360 0.63186 0.43811 -0.24800
N 	N 	0.76529 0.54808 0.45289 -0.19300
N 	N 	0.78530 0.49087 0.41128 -0.04800
N 	N 	0.77782 0.53639 0.36845 -0.07800
N 	N 	0.76547 0.36148 0.45323 -0.09900
N 	N 	0.70514 0.42438 0.47965 -0.20800
N 	N 	0.62150 0.42129 0.46543 -0.19200
N 	N 	0.62371 0.35832 0.42627 -0.09100
N 	N 	0.57796 0.53437 0.62047 -0.08800
N 	N 	0.59682 0.51750 0.57097 -0.18500
N 	N 	0.68466 0.51099 0.57896 -0.20300
N 	N 	0.72642 0.51964 0.63228 -0.09400
N 	N 	0.51160 0.62093 0.46300 -0.23000
N 	N 	0.59193 0.62962 0.48391 -0.19500
N 	N 	0.57391 0.71247 0.47023 -0.20700
N 	N 	0.48291 0.75822 0.43655 -0.11400
Cl	Cl	0.23764 0.39900 0.40363 -0.77100
Cl	Cl	0.75766 0.64553 0.56049 -0.76100
C 	C 	0.75031 0.62442 0.38520 0.10000
C 	C 	0.71404 0.32167 0.41912 0.10300
C 	C 	0.66051 0.53326 0.65806 0.10600
C 	C 	0.44391 0.70019 0.43067 0.09900
C 	C 	0.82500 0.20711 0.87656 0.00200
C 	C 	0.75300 0.24113 0.90465 -0.10300
C 	C 	0.65250 0.27596 0.87368 0.09900
N 	N 	0.57894 0.30794 0.90222 -0.20000
C 	C 	0.62345 0.28444 0.81438 -0.10600
C 	C 	0.69391 0.25688 0.78541 0.04000
C 	C 	0.66258 0.28144 0.72369 -0.03000
C 	C 	0.57812 0.36520 0.70045 -0.02200
C 	C 	0.54615 0.38714 0.64272 -0.04600
C 	C 	0.60107 0.32698 0.60761 0.02700
N 	N 	0.68401 0.24675 0.63096 -0.11500
C 	C 	0.71671 0.22385 0.68731 0.02000
C 	C 	0.79437 0.21449 0.81691 -0.06700
H 	H 	0.77398 0.24471 0.95003 0.05700
H 	H 	0.59795 0.30500 0.94637 0.06900
H 	H 	0.50407 0.33517 0.87917 0.07400
H 	H 	0.54553 0.31484 0.79113 0.05200
H 	H 	0.53661 0.41340 0.72715 0.03500
H 	H 	0.47586 0.44805 0.62516 0.04800
H 	H 	0.78162 0.15809 0.70280 0.02300
H 	H 	0.84937 0.19352 0.79533 0.04800
C 	C 	0.88985 0.26850 0.14861 0.02600
C 	C 	0.97101 0.28491 0.17209 -0.10400
C 	C 	0.99610 0.30650 0.22926 0.13800
N 	N 	0.07955 0.32202 0.25293 -0.21400
C 	C 	0.94193 0.30879 0.26366 -0.11800
C 	C 	0.86160 0.29124 0.24113 0.06000
C 	C 	0.81331 0.28269 0.27955 -0.03100
C 	C 	0.86972 0.21698 0.32481 -0.01000
C 	C 	0.83055 0.21984 0.36753 -0.05500
C 	C 	0.73455 0.28925 0.36510 0.04400
N 	N 	0.67896 0.34955 0.31905 -0.10500
C 	C 	0.71498 0.34624 0.27603 0.03300
C 	C 	0.83395 0.27430 0.18344 -0.08200
H 	H 	1.01690 0.27779 0.14667 0.06900
H 	H 	0.11491 0.32831 0.22671 0.08300
H 	H 	0.10979 0.32244 0.29674 0.08800
H 	H 	0.96336 0.32254 0.30827 0.07300
H 	H 	0.94663 0.16770 0.32927 0.03400
H 	H 	0.87884 0.17511 0.40527 0.04500
H 	H 	0.67073 0.39886 0.24220 0.02900
H 	H 	0.77347 0.25871 0.16713 0.05900
C 	C 	0.84866 0.92138 0.21389 -0.02100
C 	C 	0.95091 0.86164 0.22640 -0.11700
C 	C 	0.99846 0.79101 0.26834 0.12100
N 	N 	0.10214 0.72830 0.28060 -0.21300
C 	C 	0.94238 0.77912 0.29600 -0.11700
C 	C 	0.83925 0.83556 0.28093 0.04500
C 	C 	0.78101 0.80479 0.29862 -0.02700
C 	C 	0.75558 0.83456 0.34875 -0.03600
C 	C 	0.73372 0.78085 0.37516 -0.03100
C 	C 	0.74075 0.69680 0.35162 -0.00300
N 	N 	0.75497 0.67514 0.29980 -0.10300
C 	C 	0.77101 0.72890 0.27195 0.02100
C 	C 	0.79298 0.90909 0.24140 -0.08000
H 	H 	0.99319 0.86931 0.20337 0.05400
H 	H 	0.14182 0.72759 0.25483 0.08000
H 	H 	0.13928 0.67889 0.31399 0.07900
H 	H 	0.97806 0.72226 0.32681 0.06100
H 	H 	0.75955 0.89490 0.36939 0.03500
H 	H 	0.71993 0.80050 0.41565 -0.08300
H 	H 	0.78491 0.70777 0.23145 0.01300
H 	H 	0.71346 0.95331 0.22966 0.04700
C 	C 	0.17191 0.82260 0.10390 0.00700
C 	C 	0.24720 0.79343 0.07895 -0.09700
C 	C 	0.34667 0.75147 0.11225 0.10300
N 	N 	0.42318 0.72127 0.08637 -0.19900
C 	C 	0.37111 0.73460 0.17046 -0.10500
C 	C 	0.29665 0.76025 0.19583 0.04600
C 	C 	0.32140 0.73598 0.25640 -0.03100
C 	C 	0.26702 0.79919 0.29094 -0.01900
C 	C 	0.29764 0.78042 0.34911 -0.05100
C 	C 	0.38369 0.69872 0.37297 0.02700
N 	N 	0.43202 0.63630 0.33826 -0.10400
C 	C 	0.40123 0.65069 0.28124 0.02900
C 	C 	0.19775 0.80665 0.16251 -0.06500
H 	H 	0.23009 0.79782 0.03380 0.04700
H 	H 	0.40553 0.73324 0.04303 0.06600
H 	H 	0.49776 0.68666 0.11011 0.07500
H 	H 	0.44798 0.70111 0.19579 0.05900
H 	H 	0.20405 0.86546 0.27373 0.02900
H 	H 	0.26023 0.83291 0.37599 0.03700
H 	H 	0.44289 0.59793 0.25610 0.03100
H 	H 	0.13991 0.82551 0.18159 0.03900
C 	C 	0.24341 0.06651 0.19145 0.02400
C 	C 	0.22453 0.04229 0.23632 -0.13300
C 	C 	0.25509 0.07076 0.29113 0.07300
N 	N 	0.23553 1.04642 0.33696 -0.18100
C 	C 	0.30159 0.12621 0.30053 -0.10100
C 	C 	0.31854 0.15350 0.25560 0.04000
C 	C 	0.35607 0.22221 0.26504 -0.03200
C 	C 	0.42929 0.21745 0.31522 -0.01600
C 	C 	0.44515 0.29390 0.33148 -0.05500
C 	C 	0.38693 0.37631 0.29783 0.05200
N 	N 	0.32140 0.37723 0.24713 -0.11600
C 	C 	0.30867 0.30146 0.22886 0.02600
C 	C 	0.29052 0.12185 0.20137 -0.08200
H 	H 	0.18663 1.00122 0.22879 0.08800
H 	H 	0.18982 1.01600 0.32952 0.08200
H 	H 	0.26523 1.06011 0.37867 0.06600
H 	H 	0.31924 0.15245 0.34239 0.01700
H 	H 	0.46867 0.15740 0.34408 0.00900
H 	H 	0.49277 0.29271 0.37364 0.04800
H 	H 	0.25364 0.30723 0.18890 0.01700
H 	H 	0.30285 0.14261 0.16642 0.05100
C 	C 	0.67343 0.56368 0.71668 0.02400
C 	C 	0.70191 0.50190 0.76105 -0.09500
C 	C 	0.74872 0.51559 0.81683 0.10200
N 	N 	0.77536 0.45324 0.86193 -0.19900
C 	C 	0.77105 0.58933 0.82778 -0.11000
C 	C 	0.74024 0.65330 0.78401 0.05100
C 	C 	0.75264 0.73729 0.79705 -0.03100
C 	C 	0.82083 0.75044 0.78082 -0.01500
C 	C 	0.83546 0.82815 0.79915 -0.05300
C 	C 	0.78075 0.89176 0.83320 0.05000
N 	N 	0.71190 0.87888 0.84530 -0.09600
C 	C 	0.69590 0.80546 0.82798 0.03100
C 	C 	0.69047 0.64076 0.72896 -0.07100
H 	H 	0.69744 0.43818 0.75207 0.06100
H 	H 	0.73968 0.41328 0.85695 0.09000
H 	H 	0.82463 0.45152 0.90159 0.07900
H 	H 	0.81166 0.59737 0.87031 0.05300
H 	H 	0.86422 0.69951 0.75561 0.04100
H 	H 	0.88880 0.83789 0.78760 0.05800
H 	H 	0.64051 0.79927 0.83971 0.03800
H 	H 	0.66989 0.68823 0.69490 0.06200
C 	C 	0.15724 0.74421 0.85415 0.01900
C 	C 	0.11447 0.68563 0.84448 -0.09200
C 	C 	0.11014 0.63614 0.79444 0.07800
N 	N 	1.06818 0.57508 0.78489 -0.18500
C 	C 	0.14679 0.64717 0.75366 -0.10600
C 	C 	0.18935 0.70583 0.76313 0.05000
C 	C 	0.22506 0.71933 0.71962 -0.02800
C 	C 	0.15845 0.78219 0.67391 -0.01200
C 	C 	0.18878 0.78315 0.62788 -0.05300
C 	C 	0.28501 0.71953 0.62725 0.04500
N 	N 	0.35044 0.66282 0.67373 -0.10800
C 	C 	0.32363 0.66353 0.72020 0.03000
C 	C 	0.19484 0.75360 0.81319 -0.07700
H 	H 	0.08453 0.67873 0.87555 0.04700
H 	H 	1.04846 0.56039 0.81693 0.07800
H 	H 	1.05684 0.54436 0.74583 0.08900
H 	H 	0.14251 0.61010 0.71465 0.05600
H 	H 	0.08176 0.82623 0.67236 0.03100
H 	H 	0.13532 0.82740 0.59083 0.04200
H 	H 	0.37710 0.61578 0.75569 0.03000
H 	H 	0.22563 0.80049 0.81907 0.07300
C 	C 	0.16713 0.32984 0.56113 -0.03300
C 	C 	0.15123 0.27871 0.51303 -0.11300
C 	C 	0.13571 0.20376 0.51616 0.07500
N 	N 	0.12762 0.14756 0.46820 -0.20000
C 	C 	0.13606 0.17962 0.56776 -0.10800
C 	C 	0.15705 0.22665 0.61707 0.02800
C 	C 	0.18548 0.18167 0.67232 -0.02900
C 	C 	0.25148 0.08626 0.68012 -0.02900
C 	C 	0.27450 0.03949 0.72936 -0.04600
C 	C 	0.23238 0.08814 0.77182 -0.00100
N 	N 	0.17136 0.18183 0.76504 -0.16300
C 	C 	0.14831 0.22963 0.71690 0.01000
C 	C 	0.16809 0.30496 0.61326 -0.06700
H 	H 	0.15262 0.29628 0.47305 -0.03300
H 	H 	0.13335 0.16193 0.43034 0.04900
H 	H 	0.12688 0.08560 0.47222 0.06000
H 	H 	0.12606 0.12011 0.57029 0.04500
H 	H 	0.28484 0.04742 0.64767 0.02200
H 	H 	0.32404 -0.03469 0.73370 0.03700
H 	H 	0.09928 0.30392 0.71282 0.00500
H 	H 	0.18509 0.34123 0.65111 0.03800
