data_crystal

_cell_length_a 16.52270
_cell_length_b 20.93040
_cell_length_c 24.55460
_cell_angle_alpha 94.35370
_cell_angle_beta  110.29340
_cell_angle_gamma 67.27220

_symmetry_space_group_name_	'P 1'
_symmetry_space_group_name_H-M	'P 1'

loop_
_symmetry_equiv_pos_as_xyz
  x,y,z

loop_
_atom_site_label
_atom_site_type_symbol
_atom_site_fract_x
_atom_site_fract_y
_atom_site_fract_z
_atom_site_charge
Mn	Mn	0.80107 0.82233 0.01072 1.25700
Mn	Mn	0.77729 0.98564 -0.02733 1.29300
Mn	Mn	0.15976 0.20212 0.99727 1.25200
Mn	Mn	0.21559 0.02832 1.02859 1.28500
Mn	Mn	0.00299 -0.00236 0.00109 1.24600
C 	C 	0.72775 0.91093 0.10016 0.23900
N 	N 	0.74331 0.90681 0.04990 -0.24300
N 	N 	0.73584 0.96937 0.03718 -0.17200
N 	N 	0.71623 1.01082 0.07811 0.01100
N 	N 	0.71013 0.97574 0.11838 -0.03800
N 	N 	0.75854 0.10752 0.03737 -0.07400
N 	N 	0.81064 0.06243 0.01095 -0.20500
N 	N 	0.89304 0.06614 0.02564 -0.16900
N 	N 	0.89680 0.11433 0.06425 -0.04800
C 	C 	0.81246 0.13913 0.07162 0.24100
C 	C 	0.86196 0.93913 0.84335 0.15300
N 	N 	0.82257 0.99763 0.91047 -0.17600
N 	N 	0.78940 0.97186 0.86117 -0.07700
N 	N 	-0.01111 0.91554 0.03322 -0.23900
N 	N 	0.90468 0.91271 0.01641 -0.17800
N 	N 	0.91104 0.85110 0.03086 -0.18200
N 	N 	-0.00171 0.81156 0.05891 -0.11500
N 	N 	0.91129 0.98676 0.92114 -0.16100
N 	N 	0.93834 0.94884 0.88011 -0.04900
C 	C 	0.04720 0.85096 0.06028 0.22400
N 	N 	0.22291 0.12585 0.95323 -0.24700
N 	N 	0.24359 0.05953 0.96345 -0.17900
N 	N 	0.28028 0.02277 0.92550 -0.01600
N 	N 	0.28399 0.06559 0.88987 -0.06000
N 	N 	0.24075 0.91193 0.95569 -0.06300
N 	N 	0.18933 0.94961 0.98586 -0.18000
N 	N 	0.11572 0.93373 0.97681 -0.16400
N 	N 	0.11715 0.88542 0.93819 -0.06900
N 	N 	0.06937 0.04176 0.12513 -0.06300
N 	N 	0.09535 0.00853 0.08191 -0.17200
N 	N 	0.18226 0.00215 0.09162 -0.18900
N 	N 	0.21619 0.02458 0.14266 -0.08700
N 	N 	1.01113 0.07879 0.96671 -0.21100
N 	N 	0.08302 0.09613 0.99242 -0.19100
N 	N 	0.06204 0.16089 0.97678 -0.19000
N 	N 	0.97787 0.18624 0.93680 -0.07500
Cl	Cl	0.73916 0.89529 -0.06923 -0.69400
Cl	Cl	0.24201 0.12121 1.07377 -0.65400
C 	C 	0.24854 0.12966 0.90822 0.13700
C 	C 	0.19595 0.87214 0.92571 0.25000
C 	C 	0.14534 0.05133 0.16294 0.26200
C 	C 	0.94555 0.13458 0.93024 0.24300
Mn	Mn	0.34354 0.36315 0.62362 1.27100
Mn	Mn	0.29293 0.49307 0.52507 1.28200
Mn	Mn	0.64138 0.66480 0.41356 1.24700
Mn	Mn	0.70512 0.51332 0.49213 1.28500
Mn	Mn	0.50169 0.49516 0.50567 1.26600
C 	C 	0.25231 0.49398 0.67908 0.22500
N 	N 	0.28581 0.46389 0.63727 -0.24500
N 	N 	0.26386 0.51434 0.59964 -0.18800
N 	N 	0.21637 0.57438 0.61659 -0.03600
N 	N 	0.20789 0.56330 0.66659 -0.05200
N 	N 	0.27406 0.63277 0.54808 -0.10200
N 	N 	0.31976 0.57707 0.52617 -0.21000
N 	N 	0.40159 0.57613 0.52974 -0.18800
N 	N 	0.41277 0.63103 0.55724 -0.07000
C 	C 	0.33189 0.66623 0.56779 0.14000
C 	C 	0.31868 0.42920 0.37235 0.13000
N 	N 	0.32221 0.47100 0.45291 -0.20200
N 	N 	0.27146 0.44704 0.40928 -0.09100
N 	N 	0.50638 0.42789 0.56579 -0.22800
N 	N 	0.42749 0.43423 0.57310 -0.19100
N 	N 	0.44407 0.38622 0.61176 -0.18100
N 	N 	0.53327 0.34704 0.63197 -0.07900
N 	N 	0.39761 0.46924 0.44414 -0.18900
N 	N 	0.39840 0.44184 0.39369 -0.09600
C 	C 	0.57315 0.37200 0.60378 0.13600
N 	N 	0.69471 0.56948 0.38407 -0.24400
N 	N 	0.72378 0.51152 0.41558 -0.19200
N 	N 	0.76752 0.45763 0.39066 -0.03700
N 	N 	0.76652 0.47997 0.34133 -0.07300
N 	N 	0.72327 0.37703 0.45095 -0.09800
N 	N 	0.67908 0.42600 0.47918 -0.20500
N 	N 	0.60374 0.41799 0.47994 -0.19000
N 	N 	0.59499 0.36465 0.44848 -0.09600
N 	N 	0.59411 0.55297 0.61836 -0.08500
N 	N 	0.60221 0.52286 0.56960 -0.18500
N 	N 	0.67987 0.52137 0.56442 -0.20400
N 	N 	0.72479 0.54853 0.60834 -0.07400
N 	N 	0.49705 0.56111 0.44569 -0.23300
N 	N 	0.57115 0.57522 0.45335 -0.19700
N 	N 	0.54698 0.63494 0.42626 -0.19700
N 	N 	0.45658 0.66060 0.39767 -0.09200
Cl	Cl	0.26524 0.39538 0.52718 -0.73000
Cl	Cl	0.73311 0.61269 0.50373 -0.69500
C 	C 	0.71951 0.54959 0.33691 0.14200
C 	C 	0.67124 0.33904 0.43128 0.12900
C 	C 	0.67205 0.56762 0.64199 0.23400
C 	C 	0.42534 0.61238 0.40648 0.12800
C 	C 	0.88252 0.12953 0.87172 -0.18400
C 	C 	0.92335 0.09726 0.82984 0.26100
F 	F 	1.01313 0.05050 0.84704 -0.39900
C 	C 	0.87793 0.12122 0.77098 0.23900
F 	F 	0.92446 0.09717 0.73297 -0.38700
C 	C 	0.79094 0.17696 0.75332 -0.13200
C 	C 	0.76401 0.22331 0.70159 0.13500
C 	C 	0.72099 0.20809 0.64473 -0.06400
C 	C 	0.68198 0.25881 0.59818 0.01900
C 	C 	0.67185 0.32821 0.60973 -0.06200
C 	C 	0.73907 0.33523 0.66174 0.04900
C 	C 	0.76422 0.39205 0.66827 0.01600
N 	N 	0.82394 0.40080 0.71961 -0.02200
N 	N 	0.86023 0.35546 0.76524 -0.04800
C 	C 	0.84078 0.29772 0.76174 0.06700
C 	C 	0.78129 0.28492 0.70896 -0.02500
C 	C 	0.74416 0.20138 0.79357 0.23800
F 	F 	0.65942 0.25486 0.77733 -0.37400
C 	C 	0.79000 0.17812 0.85250 0.26700
F 	F 	0.74877 0.20978 0.89177 -0.37900
H 	H 	0.71177 0.15934 0.63685 0.08500
H 	H 	0.63994 0.24816 0.55646 0.04300
H 	H 	0.74090 0.42638 0.63176 0.05500
H 	H 	0.87396 0.26170 0.79958 0.05300
C 	C 	0.79252 0.17303 0.12394 -0.13800
C 	C 	0.71789 0.16889 0.13722 0.26200
F 	F 	0.65318 0.14774 0.09850 -0.38500
C 	C 	0.70745 0.18702 0.19069 0.24600
F 	F 	0.63941 0.17653 0.20319 -0.38400
C 	C 	0.76268 0.21876 0.22983 -0.12900
C 	C 	0.73666 0.24930 0.28125 0.13400
C 	C 	0.80035 0.22564 0.33765 -0.05900
C 	C 	0.77479 0.25000 0.38646 0.02000
C 	C 	0.68315 0.29583 0.38081 -0.03600
C 	C 	0.61664 0.31600 0.32357 0.04600
C 	C 	0.52271 0.35645 0.31362 0.01100
N 	N 	0.46195 0.38087 0.25910 -0.05300
N 	N 	0.48967 0.36743 0.21325 -0.05100
C 	C 	0.57915 0.32674 0.21904 0.07400
C 	C 	0.64463 0.29678 0.27428 -0.02200
C 	C 	0.83522 0.22600 0.21651 0.25000
F 	F 	0.88946 0.25709 0.25334 -0.38200
C 	C 	0.85085 0.20230 0.16427 0.27300
F 	F 	0.92060 0.21014 0.15232 -0.36200
H 	H 	0.87076 0.18899 0.34388 0.10800
H 	H 	0.82834 0.23496 0.42919 0.05700
H 	H 	0.49743 0.36724 0.34870 0.05200
H 	H 	0.59817 0.31815 0.18046 0.06600
C 	C 	0.73175 0.85218 0.13103 -0.20000
C 	C 	0.78494 0.83591 0.19031 0.27400
F 	F 	0.83409 0.87426 0.22018 -0.36900
C 	C 	0.78822 0.77944 0.21897 0.24000
F 	F 	0.84091 0.76377 0.27628 -0.38700
C 	C 	0.73552 0.74037 0.18909 -0.14400
C 	C 	0.72633 0.68890 0.22184 0.15300
C 	C 	0.69179 0.71298 0.26716 -0.09600
C 	C 	0.68365 0.66800 0.30149 0.06400
C 	C 	0.70808 0.59748 0.29099 -0.09400
C 	C 	0.72998 0.57420 0.24001 0.07400
C 	C 	0.73658 0.50818 0.21971 0.01700
N 	N 	0.76411 0.48698 0.17316 -0.03500
N 	N 	0.78509 0.52723 0.14538 -0.04700
C 	C 	0.77688 0.59236 0.16103 0.08600
C 	C 	0.74444 0.61912 0.20720 -0.04200
C 	C 	0.68141 0.75751 0.12993 0.24100
F 	F 	0.62533 0.72349 0.10115 -0.38800
C 	C 	0.68127 0.81210 0.10076 0.23400
F 	F 	0.62739 0.82845 0.04370 -0.42000
H 	H 	0.67282 0.76713 0.27688 0.10100
H 	H 	0.66083 0.68884 0.33753 -0.11100
H 	H 	0.71681 0.47412 0.23862 0.07800
H 	H 	0.79517 0.62261 0.13696 0.06000
C 	C 	0.14722 0.82314 0.09601 -0.17600
C 	C 	0.17073 0.84300 0.15356 0.26800
F 	F 	0.12278 0.90778 0.16589 -0.38300
C 	C 	0.22905 0.79292 0.20008 0.23900
F 	F 	0.24689 0.81356 0.25531 -0.38300
C 	C 	0.25885 0.72161 0.19028 -0.13100
C 	C 	0.29314 0.66941 0.24008 0.12200
C 	C 	0.23844 0.68090 0.27566 -0.06000
C 	C 	0.27468 0.64499 0.33000 0.01600
C 	C 	0.36695 0.59673 0.35037 -0.05300
C 	C 	0.41271 0.57196 0.30885 0.03900
C 	C 	0.49903 0.51531 0.32335 0.01000
N 	N 	0.54847 0.49929 0.28678 -0.06200
N 	N 	0.51908 0.53767 0.23774 -0.06400
C 	C 	0.43749 0.59395 0.22147 0.05500
C 	C 	0.37962 0.61148 0.25541 -0.02800
C 	C 	0.24358 0.70268 0.13245 0.23600
F 	F 	0.26366 0.63518 0.11999 -0.39100
C 	C 	0.19560 0.75378 0.08616 0.26500
F 	F 	0.17570 0.73301 0.03099 -0.39000
H 	H 	0.17024 0.72270 0.26385 0.09900
H 	H 	0.23646 0.66369 0.35981 0.04700
H 	H 	0.52725 0.48358 0.36338 0.03800
H 	H 	0.41963 0.62452 0.18256 0.08000
C 	C 	0.13901 0.11567 0.19367 -0.14200
C 	C 	0.18857 0.11259 0.25345 0.27600
F 	F 	0.22070 0.05323 0.28687 -0.37700
C 	C 	0.21014 0.16932 0.27848 0.24600
F 	F 	0.25637 0.16532 0.33666 -0.39000
C 	C 	0.18792 0.22838 0.24339 -0.12000
C 	C 	0.22164 0.28490 0.26841 0.12600
C 	C 	0.31725 0.26628 0.30052 -0.05700
C 	C 	0.35206 0.31549 0.32909 0.01900
C 	C 	0.29339 0.38580 0.32402 -0.03500
C 	C 	0.19885 0.40681 0.28681 0.04100
C 	C 	0.13849 0.47729 0.27734 0.01800
N 	N 	0.04636 0.49576 0.24618 -0.06300
N 	N 	0.01043 0.44838 0.22451 -0.06300
C 	C 	0.06442 0.37960 0.23147 0.06300
C 	C 	0.16163 0.35640 0.26101 -0.01700
C 	C 	0.13897 0.23077 0.18350 0.24200
F 	F 	0.12322 0.28355 0.14732 -0.41600
C 	C 	0.11089 0.17674 0.15961 0.29000
F 	F 	0.06364 0.18126 0.10153 -0.41000
H 	H 	0.36468 0.21238 0.30608 0.10100
H 	H 	0.42333 0.29731 0.35923 0.04900
H 	H 	0.16384 0.51784 0.29467 0.04900
H 	H 	0.03018 0.34395 0.21445 0.08400
C 	C 	0.69351 0.61145 0.69024 -0.15400
C 	C 	0.78893 0.59405 0.72260 0.27400
F 	F 	0.85261 0.52938 0.72223 -0.36000
C 	C 	0.82155 0.64468 0.74916 0.24600
F 	F 	0.91540 0.62763 0.77240 -0.33700
C 	C 	0.75875 0.71312 0.74833 -0.12500
C 	C 	0.79531 0.76769 0.77328 0.14000
C 	C 	0.77028 0.82640 0.73747 -0.04000
C 	C 	0.80355 0.87862 0.75881 0.02800
C 	C 	0.86494 0.87315 0.81602 0.01500
C 	C 	0.89596 0.81169 0.85179 0.06600
C 	C 	0.95974 0.80116 0.90925 0.04300
N 	N 	0.98158 0.74485 0.94345 -0.03600
N 	N 	0.94238 0.69883 0.92495 -0.05900
C 	C 	0.88031 0.70531 0.87044 0.07200
C 	C 	0.85791 0.76054 0.83119 -0.00600
C 	C 	0.66220 0.72952 0.72075 0.24600
F 	F 	0.60000 0.79512 0.72017 -0.37400
C 	C 	0.62975 0.67951 0.69042 0.26900
F 	F 	0.53846 0.69988 0.65601 -0.39700
H 	H 	0.72214 0.83301 0.69307 0.10600
H 	H 	0.77648 0.92577 0.73157 0.07500
H 	H 	0.99302 0.83654 0.92777 0.09000
H 	H 	0.84845 0.66751 0.85879 0.07200
C 	C 	0.21981 0.83533 0.87542 -0.13700
C 	C 	0.30437 0.82863 0.86872 0.27200
F 	F 	0.37008 0.84528 0.91139 -0.35700
C 	C 	0.32187 0.80649 0.81735 0.25300
F 	F 	0.40178 0.80434 0.81170 -0.36500
C 	C 	0.25702 0.78852 0.77161 -0.12500
C 	C 	0.27793 0.76475 0.71728 0.13800
C 	C 	0.35990 0.70658 0.72212 -0.04700
C 	C 	0.38203 0.67983 0.67304 0.04200
C 	C 	0.32296 0.71027 0.61714 -0.01100
C 	C 	0.24125 0.77048 0.61131 0.04700
C 	C 	0.17943 0.80334 0.55645 0.02700
N 	N 	0.10240 0.86132 0.55235 -0.04700
N 	N 	0.08301 0.88846 0.59935 -0.05000
C 	C 	0.13889 0.85922 0.65368 0.07100
C 	C 	0.21936 0.79846 0.66143 -0.01400
C 	C 	0.17513 0.79092 0.77920 0.24600
F 	F 	0.11286 0.77097 0.73670 -0.37900
C 	C 	0.15613 0.81492 0.83033 0.28000
F 	F 	0.07429 0.82018 0.83467 -0.39500
H 	H 	0.40538 0.67992 0.76430 0.10900
H 	H 	0.44232 0.63179 0.67855 0.07500
H 	H 	0.19226 0.78392 0.51689 0.06200
H 	H 	0.11992 0.88389 0.69020 0.07900
C 	C 	0.25360 0.45433 0.72635 -0.18700
C 	C 	0.17825 0.47673 0.74701 0.27600
F 	F 	0.10930 0.54067 0.73047 -0.36000
C 	C 	0.17107 0.43131 0.78236 0.24500
F 	F 	0.09587 0.45167 0.79987 -0.36900
C 	C 	0.23973 0.36404 0.79764 -0.14500
C 	C 	0.22864 0.31254 0.82854 0.13900
C 	C 	0.19433 0.26526 0.79540 -0.07000
C 	C 	0.20052 0.20654 0.82213 0.02500
C 	C 	0.23896 0.19478 0.88280 -0.07600
C 	C 	0.26807 0.24501 0.91741 0.02300
C 	C 	0.30543 0.23752 0.97869 -0.02400
N 	N 	0.33527 0.28575 1.00935 -0.04500
N 	N 	0.33109 0.34087 0.98310 -0.04800
C 	C 	0.29677 0.35140 0.92434 0.06500
C 	C 	0.26365 0.30383 0.88977 -0.02300
C 	C 	0.31861 0.34377 0.78118 0.24300
F 	F 	0.38685 0.27932 0.79764 -0.39000
C 	C 	0.32587 0.38870 0.74597 0.22500
F 	F 	0.40288 0.36741 0.73023 -0.48500
H 	H 	0.16620 0.27260 0.74833 0.07400
H 	H 	0.17605 0.16969 0.79512 0.05300
H 	H 	0.31238 0.19389 1.00296 -0.00000
H 	H 	0.29556 0.39683 0.90515 0.07800
