data_crystal

_cell_length_a 12.87260
_cell_length_b 28.87220
_cell_length_c 32.73290
_cell_angle_alpha 111.31760
_cell_angle_beta  89.49760
_cell_angle_gamma 93.52050

_symmetry_space_group_name_	'P 1'
_symmetry_space_group_name_H-M	'P 1'

loop_
_symmetry_equiv_pos_as_xyz
  x,y,z

loop_
_atom_site_label
_atom_site_type_symbol
_atom_site_fract_x
_atom_site_fract_y
_atom_site_fract_z
_atom_site_charge
Mn	Mn	0.54466 0.11261 0.37224 1.20700
Mn	Mn	0.78131 0.17682 0.40847 1.27200
Mn	Mn	0.00312 0.39413 0.68156 1.20300
Mn	Mn	0.76756 0.33319 0.63905 1.27000
Mn	Mn	0.77887 0.25598 0.52366 1.27500
C 	C 	0.58989 0.16583 0.30785 0.07800
N 	N 	0.61090 0.15985 0.34550 -0.25700
N 	N 	0.69897 0.18629 0.36027 -0.19800
N 	N 	0.73177 0.20836 0.33310 -0.06400
N 	N 	0.66442 0.19640 0.29982 -0.09200
N 	N 	0.86310 0.27682 0.40972 -0.11400
N 	N 	0.83005 0.25001 0.43309 -0.20600
N 	N 	0.82929 0.27841 0.47511 -0.19600
N 	N 	0.86119 0.32473 0.48076 -0.10500
C 	C 	0.88226 0.32314 0.43995 0.13300
C 	C 	0.94283 0.13185 0.49212 0.11100
N 	N 	0.85835 0.16492 0.45643 -0.19900
N 	N 	0.91343 0.12600 0.45098 -0.10000
N 	N 	0.64938 0.22175 0.48656 -0.23700
N 	N 	0.65489 0.19070 0.44571 -0.20100
N 	N 	0.56286 0.16870 0.43120 -0.21500
N 	N 	0.49195 0.18602 0.46147 -0.13000
N 	N 	0.85353 0.19254 0.49843 -0.19400
N 	N 	0.90583 0.17303 0.52206 -0.09800
C 	C 	0.54654 0.21933 0.49606 0.13900
N 	N 	0.93230 0.34363 0.70355 -0.26300
N 	N 	0.84215 0.32032 0.68754 -0.19900
N 	N 	0.80909 0.29228 0.70978 -0.06300
N 	N 	0.87871 0.29688 0.74092 -0.09900
N 	N 	0.67864 0.23389 0.63557 -0.10900
N 	N 	0.71471 0.26113 0.61296 -0.21200
N 	N 	0.72491 0.23272 0.57150 -0.20000
N 	N 	0.69579 0.18596 0.56539 -0.09600
N 	N 	0.65861 0.34090 0.52448 -0.10600
N 	N 	0.70449 0.31987 0.54866 -0.20000
N 	N 	0.69782 0.34751 0.59058 -0.20300
N 	N 	0.64850 0.38799 0.59541 -0.10600
N 	N 	0.90940 0.29038 0.56171 -0.22400
N 	N 	0.89868 0.31938 0.60332 -0.19900
N 	N 	0.98879 0.34163 0.62058 -0.21200
N 	N 	0.06346 0.32682 0.59192 -0.13000
Cl	Cl	0.71314 0.09666 0.38198 -0.78200
Cl	Cl	0.83871 0.41249 0.66905 -0.78300
C 	C 	0.95538 0.32888 0.73664 0.10800
C 	C 	0.66707 0.18719 0.60549 0.10800
C 	C 	0.62407 0.38302 0.55392 0.13400
C 	C 	1.01504 0.29448 0.55518 0.11600
Mn	Mn	1.12078 0.60331 0.35470 1.20600
Mn	Mn	0.33219 0.66822 0.41828 1.27000
Mn	Mn	0.39269 0.90449 0.69598 1.21100
Mn	Mn	0.18126 0.84060 0.63170 1.27000
Mn	Mn	0.25687 0.75393 0.52521 1.27300
C 	C 	0.21249 0.66618 0.30300 0.10600
N 	N 	0.21687 0.65016 0.33657 -0.26300
N 	N 	0.29791 0.67512 0.36059 -0.19900
N 	N 	0.34337 0.70531 0.34268 -0.06200
N 	N 	0.29129 0.70063 0.30639 -0.09700
N 	N 	0.43725 0.76547 0.42426 -0.11300
N 	N 	0.38240 0.74082 0.44504 -0.21000
N 	N 	0.35410 0.77187 0.48361 -0.20000
N 	N 	0.38970 0.81780 0.48943 -0.10700
C 	C 	0.44231 0.81320 0.45249 0.13200
C 	C 	0.40066 0.63158 0.52376 0.11100
N 	N 	0.35936 0.65992 0.47570 -0.20000
N 	N 	0.40578 0.62244 0.48028 -0.09900
N 	N 	0.15484 0.71672 0.47445 -0.23600
N 	N 	0.18568 0.68441 0.43692 -0.20000
N 	N 	0.10484 0.66019 0.41238 -0.21600
N 	N 	1.01738 0.67641 0.43229 -0.13000
N 	N 	0.32810 0.69013 0.51416 -0.19900
N 	N 	0.35246 0.67355 0.54519 -0.10200
C 	C 	0.04881 0.71220 0.47091 0.13300
N 	N 	0.29501 0.85813 0.71376 -0.25500
N 	N 	0.21306 0.83425 0.68982 -0.19900
N 	N 	0.15871 0.80910 0.71028 -0.06300
N 	N 	0.20640 0.81565 0.74797 -0.09700
N 	N 	0.08153 0.74362 0.62747 -0.11300
N 	N 	0.13127 0.76798 0.60526 -0.21200
N 	N 	0.16078 0.73625 0.56716 -0.20000
N 	N 	0.13140 0.69016 0.56331 -0.10600
N 	N 	0.15862 0.83354 0.50452 -0.10700
N 	N 	0.18404 0.81747 0.53578 -0.19900
N 	N 	0.15469 0.84845 0.57425 -0.20300
N 	N 	0.10983 0.88627 0.56956 -0.10700
N 	N 	0.35923 0.79121 0.57617 -0.23000
N 	N 	0.32799 0.82416 0.61332 -0.20000
N 	N 	0.40842 0.84731 0.63865 -0.21400
N 	N 	0.49582 0.82933 0.62001 -0.12500
Cl	Cl	0.26579 0.58821 0.38685 -0.78600
Cl	Cl	0.24905 0.92031 0.66317 -0.78000
C 	C 	0.29156 0.84608 0.74968 0.09500
C 	C 	0.08063 0.69541 0.60077 0.13200
C 	C 	0.11220 0.87616 0.52595 0.13500
C 	C 	0.46520 0.79412 0.58099 0.10500
Mn	Mn	0.99362 0.34958 0.17479 1.21700
Mn	Mn	0.23466 0.30957 0.13714 1.27100
Mn	Mn	0.48325 0.13213 0.86518 1.20400
Mn	Mn	0.23677 0.16224 0.90279 1.27200
Mn	Mn	0.23223 0.23480 0.02021 1.27000
C 	C 	0.04262 0.28437 0.22717 0.10200
N 	N 	0.06885 0.30439 0.19722 -0.25300
N 	N 	0.16149 0.28900 0.18345 -0.19900
N 	N 	0.19387 0.26140 0.20475 -0.06400
N 	N 	0.12082 0.25788 0.23266 -0.09700
N 	N 	0.33847 0.21851 0.13262 -0.11500
N 	N 	0.29730 0.24295 0.11025 -0.21200
N 	N 	0.29524 0.21571 0.06796 -0.20100
N 	N 	0.33453 0.17236 0.06133 -0.10700
C 	C 	0.36160 0.17465 0.10173 0.13200
C 	C 	0.36345 0.37749 0.05861 0.13100
N 	N 	0.30030 0.33178 0.09122 -0.20500
N 	N 	0.34287 0.37699 0.09887 -0.10700
N 	N 	0.09868 0.25371 0.05725 -0.22400
N 	N 	0.10654 0.28459 0.09875 -0.19900
N 	N 	0.01451 0.29867 0.11446 -0.21200
N 	N 	0.94153 0.27599 0.08511 -0.12200
N 	N 	0.29335 0.30617 0.04866 -0.19900
N 	N 	0.33233 0.33376 0.02689 -0.10800
C 	C 	-0.00730 0.24783 0.04928 0.10900
N 	N 	0.39652 0.17454 0.84308 -0.26400
N 	N 	0.30200 0.18603 0.85726 -0.20000
N 	N 	0.25674 0.20762 0.83334 -0.06600
N 	N 	0.32277 0.21118 0.80310 -0.10100
N 	N 	0.12045 0.24993 0.90836 -0.11200
N 	N 	0.16761 0.22691 0.93049 -0.21000
N 	N 	0.16854 0.25398 0.97278 -0.19300
N 	N 	0.12248 0.29588 0.97974 -0.09300
N 	N 	0.14034 0.13375 0.01196 -0.10000
N 	N 	0.17601 0.16282 -0.00902 -0.19600
N 	N 	0.17732 0.13699 0.94835 -0.19600
N 	N 	0.14284 0.09041 0.93996 -0.10100
N 	N 	0.36437 0.21687 0.98357 -0.23600
N 	N 	0.36237 0.19035 0.94115 -0.20000
N 	N 	0.45700 0.17930 0.92691 -0.21500
N 	N 	0.52548 0.19896 0.95932 -0.13000
Cl	Cl	0.15488 0.38221 0.16702 -0.79400
Cl	Cl	0.32732 0.09293 0.87174 -0.78800
C 	C 	0.40970 0.19066 0.80968 0.11400
C 	C 	0.09247 0.29274 0.93935 0.10800
C 	C 	0.11980 0.08898 -0.02028 0.11600
C 	C 	0.46724 0.22315 0.99447 0.15100
Mn	Mn	0.50289 0.87503 0.17163 1.21500
Mn	Mn	0.74395 0.83852 0.13105 1.27000
Mn	Mn	-0.01102 0.62954 0.87005 1.20800
Mn	Mn	0.74289 0.66482 0.90381 1.27300
Mn	Mn	0.73642 0.75197 0.01723 1.26800
C 	C 	0.57954 0.82543 0.23373 0.09400
N 	N 	0.59215 0.83847 0.19849 -0.25400
N 	N 	0.68373 0.82354 0.18269 -0.19900
N 	N 	0.72795 0.80243 0.20724 -0.06300
N 	N 	0.66409 0.80277 0.23944 -0.09600
N 	N 	0.85618 0.75389 0.13495 -0.11000
N 	N 	0.81204 0.77338 0.10916 -0.21500
N 	N 	0.80428 0.74070 0.06866 -0.19900
N 	N 	0.84437 0.69872 0.06658 -0.10100
C 	C 	0.87696 0.70763 0.10808 0.09900
C 	C 	0.83871 0.89615 0.04000 0.10800
N 	N 	0.79855 0.85498 0.07999 -0.20400
N 	N 	0.82550 0.90072 0.08214 -0.09800
N 	N 	0.60371 0.77451 0.05485 -0.22200
N 	N 	0.61344 0.80657 0.09604 -0.20000
N 	N 	0.52179 0.81963 0.11300 -0.21300
N 	N 	0.44757 0.79591 0.08456 -0.12600
N 	N 	0.79360 0.82409 0.03872 -0.20100
N 	N 	0.81851 0.84860 0.01255 -0.10100
C 	C 	0.49717 0.76768 0.04828 0.11300
N 	N 	0.90242 0.66369 0.83945 -0.25300
N 	N 	0.80988 0.67922 0.85340 -0.19900
N 	N 	0.76363 0.69350 0.82444 -0.06400
N 	N 	0.82632 0.68731 0.79071 -0.09400
N 	N 	0.63152 0.74807 0.89667 -0.11600
N 	N 	0.67448 0.73008 0.92376 -0.21000
N 	N 	0.67075 0.76202 0.96464 -0.18900
N 	N 	0.62496 0.80225 0.96547 -0.10100
N 	N 	0.62899 0.65836 0.01944 -0.09600
N 	N 	0.68054 0.67987 -0.00471 -0.19700
N 	N 	0.68081 0.64905 0.95400 -0.19400
N 	N 	0.62895 0.60662 0.94951 -0.10000
N 	N 	0.86872 0.73060 0.98110 -0.23500
N 	N 	0.86730 0.69754 0.94075 -0.20200
N 	N 	0.96217 0.68545 0.92762 -0.21100
N 	N 	0.03053 0.71103 0.95865 -0.13200
Cl	Cl	0.65639 0.90934 0.15642 -0.78000
Cl	Cl	0.83253 0.59452 0.88174 -0.77800
C 	C 	0.91243 0.66838 0.80021 0.09800
C 	C 	0.60188 0.79301 0.92284 0.13200
C 	C 	0.59770 0.61283 -0.00956 0.10400
C 	C 	0.97177 0.73985 0.99164 0.15000
C 	C 	0.49657 0.25053 0.53795 -0.14400
C 	C 	0.43032 0.21918 0.55891 -0.03200
C 	C 	0.32084 0.20185 0.53863 -0.07900
C 	C 	0.25000 0.24506 0.54586 -0.05500
C 	C 	0.14005 0.22581 0.52676 -0.07900
C 	C 	0.08124 0.26604 0.51655 -0.01800
N 	N 	0.02336 0.24509 0.47504 -0.18300
H 	H 	0.45143 0.27868 0.53158 0.05600
H 	H 	0.55658 0.27170 0.56237 0.04200
H 	H 	0.42267 0.24102 0.59452 0.02100
H 	H 	0.47264 0.18578 0.55587 0.03100
H 	H 	0.32676 0.18012 0.50303 0.03600
H 	H 	0.28447 0.17626 0.55388 0.03500
H 	H 	0.24485 0.26740 0.58147 0.02600
H 	H 	0.28465 0.26948 0.52933 0.03100
H 	H 	0.14769 0.19257 0.49649 0.04400
H 	H 	0.09582 0.21261 0.55017 0.04900
H 	H 	0.13981 0.29441 0.51304 0.02500
H 	H 	0.06122 0.21550 0.45267 0.06300
H 	H 	0.02907 0.27186 0.46046 0.07500
C 	C 	0.97216 0.74186 0.50366 -0.13800
C 	C 	0.90184 0.76812 0.48203 -0.03500
C 	C 	0.81555 0.79631 0.51206 -0.07800
C 	C 	0.72220 0.76179 0.51516 -0.05600
C 	C 	0.63147 0.79241 0.53973 -0.07400
C 	C 	0.54245 0.76067 0.55098 -0.01700
N 	N 	0.58543 0.72951 0.57273 -0.17400
H 	H 	0.01231 0.76983 0.53263 0.04400
H 	H 	0.92396 0.71582 0.51505 0.05600
H 	H 	0.86560 0.74076 0.45135 0.02600
H 	H 	0.95147 0.79537 0.47256 0.03300
H 	H 	0.84831 0.81806 0.54536 0.03500
H 	H 	0.78687 0.82329 0.49834 0.03400
H 	H 	0.69449 0.73732 0.48175 0.03100
H 	H 	0.74854 0.73791 0.53256 0.04100
H 	H 	0.66281 0.82164 0.57051 0.03500
H 	H 	0.59892 0.81147 0.51913 0.04100
H 	H 	0.50382 0.73617 0.51997 0.02500
H 	H 	0.52491 0.71137 0.58361 0.08400
H 	H 	0.62768 0.75213 0.60079 0.07200
C 	C 	0.51308 0.25086 0.03935 -0.16000
C 	C 	0.58340 0.29670 0.04168 -0.05000
C 	C 	0.67997 0.28602 1.01275 -0.05700
C 	C 	0.74689 0.24815 0.02099 -0.06600
C 	C 	0.84915 0.24405 -0.00407 -0.08600
C 	C 	0.92879 0.21398 0.00962 -0.01400
N 	N 	0.99172 0.18669 -0.02754 -0.18300
H 	H 	0.55546 0.22511 0.05039 0.05600
H 	H 	0.45114 0.26484 1.06312 0.05300
H 	H 	0.60904 0.31681 0.07634 0.01700
H 	H 	0.53714 0.32209 1.03195 0.04300
H 	H 	0.65734 0.27320 0.97755 0.03300
H 	H 	0.72695 0.32191 1.02039 0.03000
H 	H 	0.76115 0.25962 0.05673 0.03200
H 	H 	0.70496 0.21078 0.00943 0.03000
H 	H 	0.82863 0.22579 0.96048 0.03400
H 	H 	0.88513 0.28173 0.00098 0.04400
H 	H 	0.88486 0.18624 0.02067 0.02700
H 	H 	0.98952 0.20182 -0.05197 0.06200
H 	H 	0.95801 0.15041 -0.04192 0.06200
C 	C 	0.01747 0.77587 1.03409 -0.15300
C 	C 	0.08392 0.81914 1.02819 -0.03200
C 	C 	0.18392 0.80477 1.00138 -0.06700
C 	C 	0.25610 0.77569 0.01905 -0.07600
C 	C 	0.35798 0.76551 0.99310 -0.05800
C 	C 	0.43164 0.73446 0.00899 -0.02800
N 	N 	0.49354 0.70339 -0.02692 -0.18200
H 	H 	1.06225 0.75576 1.05045 0.06200
H 	H 	-0.04520 0.79249 1.05671 0.04400
H 	H 	0.10549 0.84669 1.06128 0.02000
H 	H 	0.03523 0.83827 1.01207 0.03400
H 	H 	0.16387 0.78321 0.96642 0.03400
H 	H 	0.22665 0.83992 1.00256 0.03100
H 	H 	0.27246 0.79743 0.05423 0.02900
H 	H 	0.21645 0.73929 0.01593 0.03100
H 	H 	0.33585 0.74475 0.95812 0.02600
H 	H 	0.39952 0.80122 0.99503 0.04100
H 	H 	0.38248 0.70910 0.02112 0.03200
H 	H 	0.49239 0.71514 -0.05346 0.06300
H 	H 	0.45803 0.66732 -0.03881 0.06500
C 	C 	0.07826 0.91049 0.50449 -0.13700
C 	C 	0.96559 0.92449 0.51573 -0.02900
C 	C 	0.92818 0.95837 0.49263 -0.08200
C 	C 	0.99262 1.00838 0.50617 -0.04700
C 	C 	0.94174 0.04502 0.48971 -0.08600
C 	C 	1.00428 0.09584 0.50356 -0.00600
N 	N 	0.10596 0.09245 0.48251 -0.18100
H 	H 	0.08557 0.89244 0.46837 0.05400
H 	H 	0.13204 0.94432 0.51615 0.05600
H 	H 	-0.04206 0.94337 0.55180 0.02800
H 	H 	0.91361 0.88998 0.50524 0.02500
H 	H 	0.93163 0.93888 0.45647 0.03700
H 	H 	0.84526 0.96529 0.50122 0.03600
H 	H 	1.00071 1.02495 0.54251 0.03500
H 	H 	0.07110 1.00167 0.49172 0.02800
H 	H 	0.93303 0.02862 0.45337 0.04600
H 	H 	0.86239 0.05108 0.50376 0.04800
H 	H 	1.01636 0.11060 0.53981 0.03200
H 	H 	1.09871 0.06958 0.44937 0.06700
H 	H 	0.15690 0.07660 0.49767 0.06400
C 	C 	0.08212 0.04246 0.98686 -0.10900
C 	C 	0.16347 0.02650 1.01235 -0.03500
C 	C 	0.14300 0.97244 1.01018 -0.07100
C 	C 	0.04245 0.96384 0.03321 -0.05700
C 	C 	0.94976 0.94207 0.00105 -0.09800
C 	C 	0.84718 0.93982 0.02531 -0.00500
N 	N 	0.75647 0.93688 -0.00243 -0.17300
H 	H 	0.00811 0.04941 0.00517 0.04200
H 	H 	0.06686 0.01239 0.95430 0.04900
H 	H 	0.16644 0.05250 0.04716 0.02800
H 	H 	0.24172 0.02930 0.99832 0.03700
H 	H 	0.14380 0.94616 0.97551 0.03700
H 	H 	0.21002 0.96395 1.02699 0.03300
H 	H 	0.05719 0.93714 0.04957 0.02800
H 	H 	0.02283 -0.00063 0.05936 0.03100
H 	H 	0.94016 0.96579 0.98142 0.05000
H 	H 	-0.03380 0.90430 0.97767 0.04800
H 	H 	0.84390 0.97455 0.05483 0.03500
H 	H 	0.76239 0.90730 -0.03235 0.07600
H 	H 	0.75547 -0.03032 -0.00901 0.06400
C 	C 	0.57800 0.42227 0.54138 -0.13400
C 	C 	0.46657 0.43158 0.55804 -0.03500
C 	C 	0.41216 0.46439 0.53793 -0.08000
C 	C 	0.46242 0.51757 0.55256 -0.05400
C 	C 	0.40917 0.54820 0.53004 -0.08200
C 	C 	0.45336 0.60279 0.54655 -0.00900
N 	N 	0.56575 0.60722 0.53998 -0.17500
H 	H 	0.57800 0.41053 0.50503 0.05600
H 	H 	0.62914 0.45682 0.55536 0.05700
H 	H 	0.46729 0.44925 0.59442 0.02400
H 	H 	0.42043 0.39529 0.54867 0.02300
H 	H 	0.41364 0.44685 0.50156 0.03700
H 	H 	0.32933 0.46611 0.54799 0.03000
H 	H 	0.45746 0.53585 0.58880 0.03000
H 	H 	0.54555 0.51605 0.54335 0.03300
H 	H 	0.41914 0.53076 0.49395 0.04600
H 	H 	0.32433 0.54757 0.53687 0.04100
H 	H 	0.43744 0.62000 0.58227 0.02900
H 	H 	0.58497 0.58229 0.50900 0.07400
H 	H 	0.60526 0.59847 0.56374 0.07100
C 	C 	0.40425 0.42294 0.05042 -0.12800
C 	C 	0.52229 0.42287 0.04307 -0.05000
C 	C 	0.57128 0.47486 0.04933 -0.07100
C 	C 	0.52404 0.49750 0.01856 -0.06900
C 	C 	0.58457 0.54641 0.02228 -0.07500
C 	C 	0.52475 0.57632 0.00068 -0.01900
N 	N 	0.44114 0.60300 0.02842 -0.17700
H 	H 	0.38579 0.45636 0.07921 0.05400
H 	H 	0.36322 0.42442 0.02119 0.05200
H 	H 	0.53869 0.39644 1.00954 0.03700
H 	H 	0.56068 0.41024 0.06717 0.02400
H 	H 	0.56102 0.50001 0.08390 0.03300
H 	H 	0.65616 0.47187 0.04340 0.02900
H 	H 	0.52609 0.47082 0.98406 0.04100
H 	H 	0.44148 0.50439 0.02734 0.03400
H 	H 	0.60222 0.56965 0.05721 0.04000
H 	H 	0.66025 0.53660 0.00554 0.04000
H 	H 	0.49001 0.55020 0.96903 0.03400
H 	H 	0.47010 0.62329 0.06010 0.07700
H 	H 	0.38268 0.57744 0.03082 0.06600
C 	C 	0.91780 0.36800 0.42977 -0.13000
C 	C 	0.03305 0.36671 0.41605 -0.03900
C 	C 	0.04702 0.37612 0.37307 -0.07300
C 	C 	1.01161 0.32953 0.33352 -0.06400
C 	C 	0.96943 0.34289 0.29590 -0.06400
C 	C 	0.94682 0.29550 0.25475 -0.04900
N 	N 	0.85903 0.30120 0.22910 -0.17400
H 	H 	0.90835 0.40204 0.45938 0.05200
H 	H 	0.86479 0.37032 0.40403 0.05300
H 	H 	0.06603 0.33065 0.41243 0.02900
H 	H 	0.07969 0.39621 0.44228 0.02400
H 	H 	1.00340 0.40887 0.37470 0.02700
H 	H 	0.13067 0.38574 0.36930 0.03100
H 	H 	0.07855 0.30564 0.32236 0.03900
H 	H 	0.94881 0.30732 0.34297 0.04400
H 	H 	0.89679 0.36255 0.30703 0.02100
H 	H 	0.02603 0.36932 0.28829 0.00600
H 	H 	-0.07401 0.26297 0.26453 0.04400
H 	H 	0.87131 0.33410 0.22279 -0.05100
H 	H 	0.79197 0.30499 0.24810 0.06400
C 	C 	0.13013 0.64958 0.26763 -0.13300
C 	C 	0.17796 0.63024 0.22139 -0.04000
C 	C 	0.15400 0.66223 0.19422 -0.07600
C 	C 	0.04466 0.64901 0.17313 -0.05800
C 	C 	1.01416 0.68635 0.15221 -0.07400
C 	C 	0.91350 0.66831 0.12407 -0.00800
N 	N 	0.83108 0.65389 0.14911 -0.18000
H 	H 	0.08120 0.68140 0.27203 0.04300
H 	H 	0.07842 0.61951 0.27208 -0.02200
H 	H 	0.14897 0.59093 0.20358 0.01800
H 	H 	0.26403 0.62948 0.22374 0.03000
H 	H 	0.16282 0.70241 0.21527 0.03800
H 	H 	0.21211 0.65561 0.16768 0.03400
H 	H 	0.04281 0.61086 0.14771 0.03200
H 	H 	0.98698 0.64892 0.19858 0.03600
H 	H 	1.00350 0.72284 0.17887 0.04000
H 	H 	0.07834 0.69173 0.13108 0.03100
H 	H 	0.93050 0.63489 0.09505 0.02900
H 	H 	0.76790 0.63668 0.12808 0.07500
H 	H 	0.80543 0.68566 0.17378 0.08200
C 	C 	1.04796 0.34856 0.76687 -0.13300
C 	C 	1.11285 0.30667 0.76973 -0.03700
C 	C 	1.06929 0.28441 0.80300 -0.07300
C 	C 	0.09460 0.31824 0.85101 -0.05700
C 	C 	0.00398 0.31626 0.88148 -0.08600
C 	C 	0.03928 0.33312 0.93007 -0.00900
N 	N 	-0.04971 0.34784 0.95912 -0.17500
H 	H 	1.09826 0.37343 0.75481 -0.02200
H 	H 	1.02002 0.37168 0.79971 0.04100
H 	H 	1.19455 0.32142 0.77917 0.02400
H 	H 	1.11570 0.27654 0.73684 0.02600
H 	H 	0.98414 0.27605 0.79752 0.04600
H 	H 	1.10385 0.24809 0.79652 0.04600
H 	H 	0.16691 0.30625 0.86149 0.04500
H 	H 	0.11124 0.35767 0.85429 0.02800
H 	H 	0.94427 0.34092 0.87799 0.04000
H 	H 	0.96591 0.27800 0.87107 0.04100
H 	H 	0.09588 0.36601 0.93785 0.03100
H 	H 	-0.11116 0.32070 0.94775 0.06700
H 	H 	-0.07521 0.38093 0.95765 0.06800
C 	C 	0.39820 0.13067 0.11055 -0.13200
C 	C 	0.42999 0.14166 0.15849 -0.03200
C 	C 	0.33699 0.15435 0.19001 -0.08000
C 	C 	0.35029 0.13991 0.23030 -0.05000
C 	C 	0.44218 0.16939 0.26047 -0.08000
C 	C 	0.50690 0.13552 0.27566 -0.01500
N 	N 	0.55407 0.09818 0.23805 -0.18200
H 	H 	0.46589 0.11668 0.08936 0.04900
H 	H 	0.33529 0.10041 0.10051 0.05200
H 	H 	0.49132 0.17267 0.16888 0.02900
H 	H 	0.46534 0.10797 0.15968 0.02900
H 	H 	0.32602 0.19483 0.20142 0.05300
H 	H 	0.26450 0.13425 0.17257 0.04300
H 	H 	0.27754 0.14746 0.24960 0.02300
H 	H 	0.35764 0.09900 0.21904 0.02600
H 	H 	0.49430 0.18910 0.24402 0.04700
H 	H 	0.41090 0.19863 0.28973 0.03100
H 	H 	0.45444 0.11578 0.29211 -0.04500
H 	H 	0.60794 0.11585 0.22351 0.07900
H 	H 	0.59494 0.07470 0.24918 0.05000
C 	C 	0.54971 0.82759 0.90582 -0.12900
C 	C 	0.62423 0.84640 0.87724 -0.04100
C 	C 	0.56623 0.86551 0.84607 -0.07200
C 	C 	0.53069 0.82263 0.80352 -0.06000
C 	C 	0.47730 0.84026 0.77034 -0.06800
C 	C 	0.37141 0.86271 0.78638 -0.05000
N 	N 	0.38418 0.91718 0.80543 -0.16600
H 	H 	0.47996 0.80691 0.88640 0.04900
H 	H 	0.52294 0.85991 0.93366 0.05500
H 	H 	0.67569 0.81677 0.85785 0.04000
H 	H 	0.67602 0.87744 0.89927 0.02900
H 	H 	0.49867 0.88616 0.86310 0.04200
H 	H 	0.61993 0.89216 0.83747 0.02800
H 	H 	0.60004 0.80274 0.78749 0.03400
H 	H 	0.47711 0.79533 0.81117 0.03500
H 	H 	0.53087 0.86725 0.76211 -0.00700
H 	H 	0.46565 0.80711 0.73952 0.02200
H 	H 	0.34113 0.84906 0.81224 0.04200
H 	H 	0.40810 0.93097 0.78115 -0.02300
H 	H 	0.31185 0.93122 0.81640 0.06600
C 	C 	0.47923 0.85676 0.44038 -0.13000
C 	C 	0.58829 0.85120 0.41985 -0.03900
C 	C 	0.59875 0.87455 0.38441 -0.07200
C 	C 	0.54902 0.84059 0.34012 -0.06500
C 	C 	0.52553 0.87078 0.31143 -0.06500
C 	C 	0.48853 0.83718 0.26440 -0.04000
N 	N 	0.41006 0.86115 0.24806 -0.21000
H 	H 	0.48022 0.89146 0.47005 0.05100
H 	H 	0.42031 0.86064 0.41743 0.05500
H 	H 	0.60798 0.81160 0.40556 0.03300
H 	H 	0.64668 0.87066 0.44636 0.02500
H 	H 	0.56375 0.91133 0.39647 0.03100
H 	H 	0.68279 0.88150 0.37909 0.03500
H 	H 	0.60310 0.81128 0.32297 0.04400
H 	H 	0.47509 0.82160 0.34529 0.04300
H 	H 	0.46418 0.89641 0.32798 0.02300
H 	H 	0.59574 0.89460 0.30992 0.03000
H 	H 	0.45238 0.80123 0.26456 0.03600
H 	H 	0.43832 0.89721 0.25162 -0.01800
H 	H 	0.34391 0.86463 0.26754 0.05700
C 	C 	0.49895 0.17934 0.77898 -0.15400
C 	C 	0.47531 0.12934 0.74127 -0.03300
C 	C 	0.53902 0.12472 0.70030 -0.07800
C 	C 	0.50098 0.15844 0.67683 -0.05600
C 	C 	0.52210 0.13787 0.62748 -0.07900
C 	C 	0.63896 0.14151 0.61634 -0.01000
N 	N 	0.66602 0.09681 0.57971 -0.17300
H 	H 	0.51159 0.21029 0.76667 0.05800
H 	H 	0.57088 0.17759 0.79678 -0.00100
H 	H 	0.39107 0.12391 0.73219 0.02600
H 	H 	0.49312 0.09870 0.75259 -0.02600
H 	H 	0.62276 0.13403 0.70948 0.03100
H 	H 	0.53113 0.08503 0.67791 0.02500
H 	H 	0.41539 0.16131 0.68060 0.03300
H 	H 	0.53794 0.19671 0.69194 0.03600
H 	H 	0.48988 0.09854 0.61368 0.03500
H 	H 	0.47614 0.15830 0.61184 0.03600
H 	H 	0.68848 0.14424 0.64489 0.03400
H 	H 	0.61492 0.09061 0.55330 0.07400
H 	H 	0.65578 0.06610 0.58943 0.06600
C 	C 	0.05545 0.65344 0.61638 -0.12800
C 	C 	0.15035 0.64493 0.64092 -0.03900
C 	C 	0.12100 0.63704 0.68366 -0.07000
C 	C 	0.09627 0.68621 0.72067 -0.06400
C 	C 	0.08281 0.68103 0.76562 -0.06900
C 	C 	-0.00825 0.64368 0.76650 -0.04900
N 	N 	1.03177 0.60147 0.77487 -0.21800
H 	H 	0.03376 0.61892 0.58786 0.05000
H 	H 	-0.01378 0.66247 0.63762 0.05300
H 	H 	0.21087 0.67628 0.64857 0.04000
H 	H 	0.18788 0.61130 0.61890 0.02600
H 	H 	0.05393 0.60911 0.67682 0.03100
H 	H 	0.18778 0.62123 0.69425 0.02600
H 	H 	0.16186 0.71424 0.72386 0.04700
H 	H 	0.02504 0.70100 0.71240 0.04400
H 	H 	0.15738 0.66991 0.77518 0.01800
H 	H 	0.07094 0.71875 0.79022 0.03000
H 	H 	-0.05090 0.62905 0.73451 0.03800
H 	H 	0.96895 0.57723 0.77605 0.02300
H 	H 	1.07531 0.58136 0.74777 0.05100
