data_crystal

_cell_length_a 13.04790
_cell_length_b 30.11080
_cell_length_c 32.65470
_cell_angle_alpha 128.33230
_cell_angle_beta  91.64950
_cell_angle_gamma 92.18240

_symmetry_space_group_name_	'P 1'
_symmetry_space_group_name_H-M	'P 1'

loop_
_symmetry_equiv_pos_as_xyz
  x,y,z

loop_
_atom_site_label
_atom_site_type_symbol
_atom_site_fract_x
_atom_site_fract_y
_atom_site_fract_z
_atom_site_charge
Mn	Mn	0.57480 0.07546 0.31381 1.22900
Mn	Mn	0.80298 0.13853 0.38915 1.29300
Mn	Mn	-0.06498 0.44553 0.73903 1.22000
Mn	Mn	0.71448 0.38086 0.65826 1.28600
Mn	Mn	0.76348 0.25861 0.52502 1.27700
C 	C 	0.68308 0.12358 0.26449 0.23800
N 	N 	0.68070 0.11451 0.29989 -0.25000
N 	N 	0.77032 0.13571 0.32673 -0.17900
N 	N 	0.82790 0.15599 0.30831 -0.02000
N 	N 	0.77476 0.14949 0.26946 -0.04800
N 	N 	0.93683 0.23059 0.40672 -0.09300
N 	N 	0.87538 0.21567 0.42841 -0.19500
N 	N 	0.85736 0.26026 0.47626 -0.18200
N 	N 	0.90556 0.30629 0.48692 -0.08200
C 	C 	0.95384 0.28712 0.44310 0.15900
C 	C 	0.87781 0.11538 0.49556 0.28400
N 	N 	0.83216 0.14038 0.45081 -0.17200
N 	N 	0.87031 0.09782 0.44638 -0.07000
N 	N 	0.64990 0.21476 0.46554 -0.23200
N 	N 	0.66800 0.17184 0.41701 -0.18700
N 	N 	0.58095 0.14766 0.38805 -0.18500
N 	N 	0.50237 0.17432 0.41595 -0.09000
N 	N 	0.81750 0.18266 0.50033 -0.16700
N 	N 	0.84438 0.16820 0.53000 -0.05900
C 	C 	0.54564 0.21683 0.46417 0.16500
N 	N 	0.82352 0.40857 0.75202 -0.25700
N 	N 	0.73705 0.38499 0.72247 -0.18000
N 	N 	0.68646 0.35552 0.73403 -0.02000
N 	N 	0.74131 0.35850 0.77063 -0.06400
N 	N 	0.57801 0.29206 0.64075 -0.08200
N 	N 	0.63961 0.30440 0.61761 -0.20600
N 	N 	0.66953 0.25761 0.57426 -0.18700
N 	N 	0.63151 0.21282 0.56959 -0.06500
N 	N 	0.71218 0.34756 0.51654 -0.09500
N 	N 	0.71087 0.33285 0.54719 -0.19300
N 	N 	0.69820 0.37792 0.59568 -0.19200
N 	N 	0.69266 0.42340 0.59857 -0.08100
N 	N 	0.87492 0.30473 0.58613 -0.23100
N 	N 	0.85048 0.34548 0.63461 -0.18600
N 	N 	0.93403 0.37088 0.66636 -0.19200
N 	N 	0.01611 0.34871 0.64026 -0.09800
Cl	Cl	0.71038 0.05385 0.34375 -0.74000
Cl	Cl	0.80663 0.46590 0.70522 -0.74700
C 	C 	0.82716 0.39148 0.78134 0.14300
C 	C 	0.57349 0.23546 0.61163 0.22900
C 	C 	0.70084 0.40372 0.54897 0.16400
C 	C 	0.98006 0.30764 0.59023 0.25100
Mn	Mn	1.06445 0.57219 0.30879 1.19600
Mn	Mn	0.27640 0.65538 0.39164 1.28300
Mn	Mn	0.36761 0.92278 0.74857 1.23700
Mn	Mn	0.15281 0.84962 0.66377 1.28500
Mn	Mn	0.21407 0.75394 0.52751 1.27900
C 	C 	0.14808 0.62868 0.26321 0.16200
N 	N 	0.14797 0.62475 0.30182 -0.26300
N 	N 	0.22737 0.65795 0.33408 -0.18900
N 	N 	0.27533 0.68216 0.31661 -0.02900
N 	N 	0.22679 0.66479 0.27213 -0.04600
N 	N 	0.35533 0.76816 0.42455 -0.09400
N 	N 	0.31778 0.73968 0.44005 -0.19900
N 	N 	0.29263 0.77539 0.48902 -0.19200
N 	N 	0.31107 0.82820 0.50678 -0.08200
C 	C 	0.35118 0.82318 0.46667 0.17700
C 	C 	0.36801 0.61799 0.48652 0.25300
N 	N 	0.31931 0.64988 0.44767 -0.18800
N 	N 	0.36608 0.60723 0.43970 -0.06200
N 	N 	0.10734 0.70725 0.46500 -0.23400
N 	N 	0.13394 0.66991 0.41661 -0.19400
N 	N 	0.05239 0.63942 0.38479 -0.20400
N 	N 	0.96823 0.65662 0.41073 -0.11300
N 	N 	0.29397 0.68484 0.49647 -0.18800
N 	N 	0.32361 0.66648 0.52229 -0.06000
C 	C 	0.00290 0.69942 0.46080 0.15600
N 	N 	0.27765 0.86737 0.74960 -0.23900
N 	N 	0.19352 0.84119 0.71843 -0.18300
N 	N 	0.14832 0.80696 0.72586 -0.01200
N 	N 	0.20443 0.80916 0.76158 -0.04900
N 	N 	0.04629 0.73906 0.62379 -0.07100
N 	N 	0.10432 0.76680 0.61272 -0.19900
N 	N 	0.13357 0.73138 0.56465 -0.19100
N 	N 	0.09567 0.67914 0.54252 -0.09100
N 	N 	0.09692 0.84215 0.53517 -0.10200
N 	N 	0.13398 0.82409 0.56019 -0.19400
N 	N 	0.11517 0.85976 0.61011 -0.19400
N 	N 	0.06649 0.90274 0.61977 -0.09100
N 	N 	0.32199 0.80009 0.58989 -0.23200
N 	N 	0.29569 0.83268 0.63879 -0.18700
N 	N 	0.37768 0.86047 0.67135 -0.19900
N 	N 	0.46141 0.84692 0.64539 -0.10300
Cl	Cl	0.21816 0.56221 0.33674 -0.72300
Cl	Cl	0.22012 0.94009 0.72148 -0.73800
C 	C 	0.28540 0.84651 0.77590 0.23600
C 	C 	0.04231 0.68458 0.57998 0.17400
C 	C 	0.05586 0.89120 0.57278 0.15300
C 	C 	0.42668 0.80889 0.59461 0.25000
Mn	Mn	1.07814 0.42867 0.21123 1.20000
Mn	Mn	0.29997 0.37379 0.14700 1.28000
Mn	Mn	0.41970 0.06380 0.81429 1.20600
Mn	Mn	0.19550 0.11502 0.87815 1.28800
Mn	Mn	0.24633 0.24460 0.01238 1.27500
C 	C 	0.17411 0.37868 0.26179 0.24000
N 	N 	0.17838 0.39475 0.23139 -0.25500
N 	N 	0.26738 0.37901 0.20997 -0.18200
N 	N 	0.31838 0.35624 0.22755 -0.02900
N 	N 	0.26182 0.35537 0.26003 -0.05500
N 	N 	0.43137 0.29058 0.13907 -0.10300
N 	N 	0.36310 0.29929 0.11449 -0.20300
N 	N 	0.33644 0.25132 0.06761 -0.19500
N 	N 	0.38592 0.20940 0.06002 -0.10000
C 	C 	0.44371 0.23450 0.10509 0.15200
C 	C 	0.37479 0.38344 0.03192 0.17300
N 	N 	0.32866 0.36755 0.08328 -0.19200
N 	N 	0.37062 0.40836 0.08336 -0.09200
N 	N 	0.13768 0.28611 0.06583 -0.23500
N 	N 	0.16044 0.33444 0.11314 -0.18700
N 	N 	0.07651 0.35511 0.13836 -0.19900
N 	N 	0.99594 0.32005 0.11003 -0.10700
N 	N 	0.30930 0.32039 0.03476 -0.19200
N 	N 	0.33741 0.32884 0.00143 -0.09400
C 	C 	0.03446 0.27683 0.06502 0.24200
N 	N 	0.31095 0.09131 0.79123 -0.25500
N 	N 	0.22303 0.10775 0.81344 -0.18100
N 	N 	0.16709 0.12484 0.79177 -0.01900
N 	N 	0.21984 0.12161 0.75603 -0.06300
N 	N 	0.07989 0.19766 0.88073 -0.06800
N 	N 	0.12700 0.18816 0.91050 -0.18500
N 	N 	0.15688 0.23708 0.95625 -0.17100
N 	N 	0.13408 0.27979 0.95639 -0.05700
N 	N 	0.18184 0.15803 0.02340 -0.08800
N 	N 	0.18539 0.16916 -0.00979 -0.19600
N 	N 	0.17231 0.12122 0.94188 -0.18000
N 	N 	0.16081 0.07746 0.94187 -0.07000
N 	N 	0.35528 0.20353 0.95946 -0.23300
N 	N 	0.33335 0.15780 0.91072 -0.19000
N 	N 	0.41815 0.13937 0.88572 -0.20100
N 	N 	0.49850 0.17333 0.91651 -0.10000
Cl	Cl	0.21676 0.45470 0.18604 -0.75300
Cl	Cl	0.28676 0.03731 0.84180 -0.75000
C 	C 	0.30965 0.10083 0.75611 0.13500
C 	C 	0.08489 0.25434 0.90894 0.26300
C 	C 	0.16525 0.10130 -0.00688 0.16600
C 	C 	0.45879 0.21315 0.96278 0.17700
Mn	Mn	0.63201 0.92656 0.24447 1.26400
Mn	Mn	0.83618 0.87077 0.16603 1.28800
Mn	Mn	-0.13971 0.59754 0.80958 1.26800
Mn	Mn	0.66190 0.66125 0.89033 1.28600
Mn	Mn	0.75157 0.76360 0.02815 1.27200
C 	C 	0.72440 0.85165 0.26890 0.23900
N 	N 	0.73003 0.87841 0.24788 -0.23400
N 	N 	0.81326 0.86150 0.22148 -0.18100
N 	N 	0.86117 0.82835 0.22819 -0.02600
N 	N 	0.80733 0.82133 0.25774 -0.05300
N 	N 	0.94378 0.77398 0.13678 -0.09600
N 	N 	0.88989 0.79380 0.11754 -0.20200
N 	N 	0.84598 0.75160 0.07117 -0.19000
N 	N 	0.86444 0.70262 0.06081 -0.06800
C 	C 	0.92641 0.71761 0.10217 0.24100
C 	C 	0.89851 0.91429 0.07515 0.22600
N 	N 	0.85509 0.87951 0.11169 -0.19700
N 	N 	0.89900 0.92550 0.12183 -0.06600
N 	N 	0.65492 0.80160 0.08798 -0.23300
N 	N 	0.68946 0.84052 0.13725 -0.18400
N 	N 	0.61193 0.86207 0.16758 -0.19500
N 	N 	0.52372 0.83700 0.14005 -0.09700
N 	N 	0.82900 0.84095 0.06128 -0.19100
N 	N 	0.85451 0.86159 0.03663 -0.08300
C 	C 	0.55064 0.79879 0.09038 0.24800
N 	N 	0.76904 0.64774 0.80568 -0.23400
N 	N 	0.69105 0.67046 0.83555 -0.18500
N 	N 	0.64848 0.70506 0.82927 -0.00400
N 	N 	0.69907 0.70597 0.79524 -0.03400
N 	N 	0.56169 0.76490 0.92499 -0.07700
N 	N 	0.61915 0.74088 0.93936 -0.19500
N 	N 	0.65641 0.77885 0.98816 -0.17800
N 	N 	0.62585 0.82948 1.00717 -0.06800
N 	N 	0.66868 0.66094 0.01538 -0.04500
N 	N 	0.67516 0.68635 -0.00618 -0.19400
N 	N 	0.63830 0.65073 0.94450 -0.18000
N 	N 	0.60539 0.60165 0.93254 -0.06400
N 	N 	0.84713 0.72361 0.96735 -0.23100
N 	N 	0.81002 0.68740 0.91802 -0.19000
N 	N 	0.88523 0.66239 0.88669 -0.19700
N 	N 	-0.02546 0.68111 0.91382 -0.11300
Cl	Cl	0.76771 0.95558 0.22093 -0.70900
Cl	Cl	0.71925 0.57329 0.83376 -0.71600
C 	C 	0.77500 0.67060 0.78098 0.23400
C 	C 	0.56704 0.82001 0.96735 0.20400
C 	C 	0.62393 0.60876 -0.02286 0.24200
C 	C 	0.95104 0.71916 0.96413 0.19800
C 	C 	0.48227 0.25856 0.50877 -0.14600
C 	C 	0.41893 0.29191 0.49692 -0.03300
C 	C 	0.31895 0.25927 0.46192 -0.02200
C 	C 	0.22571 0.27025 0.49268 -0.08300
C 	C 	0.16818 0.22541 0.48613 0.21800
F 	F 	0.19721 0.17142 0.45329 -0.37700
C 	C 	0.08198 0.23615 0.51482 0.28000
F 	F 	0.03526 0.19347 0.51183 -0.38900
C 	C 	0.04991 0.29126 0.54912 -0.20000
C 	C 	0.10447 0.33551 0.55366 0.27700
F 	F 	0.07409 0.38930 0.58605 -0.39800
C 	C 	0.19173 0.32533 0.52617 0.20500
F 	F 	0.24236 0.36931 0.53186 -0.39400
H 	H 	0.43077 0.23542 0.51738 0.10700
H 	H 	0.53258 0.28991 0.54410 0.05800
H 	H 	0.46718 0.30431 0.47753 0.07000
H 	H 	0.40121 0.33208 0.53487 0.08700
H 	H 	0.32926 0.21320 0.43386 0.09200
H 	H 	0.30313 0.27306 0.43784 0.08300
C 	C 	0.93180 0.73325 0.50416 -0.15200
C 	C 	0.86165 0.76625 0.49432 -0.02400
C 	C 	0.76352 0.73074 0.45898 -0.02200
C 	C 	0.66921 0.74795 0.49021 -0.08500
C 	C 	0.63206 0.71761 0.50700 0.21200
F 	F 	0.68026 0.67228 0.49546 -0.39800
C 	C 	0.54901 0.73599 0.53880 0.27400
F 	F 	0.52520 0.71108 0.56072 -0.38300
C 	C 	0.49850 0.78346 0.55260 -0.20200
C 	C 	0.53884 0.81533 0.53791 0.27400
F 	F 	0.50399 0.86679 0.55838 -0.41400
C 	C 	0.62196 0.79712 0.50607 0.21000
F 	F 	0.66016 0.82922 0.49313 -0.38800
H 	H 	0.88541 0.70447 0.50801 0.10700
H 	H 	0.97629 0.76393 0.54192 0.05900
H 	H 	0.90538 0.78149 0.47594 0.05300
H 	H 	0.84128 0.80518 0.53283 0.06700
H 	H 	0.77190 0.68456 0.43653 0.07300
H 	H 	0.75214 0.73670 0.42881 0.07700
C 	C 	0.52276 0.26115 0.01047 -0.16800
C 	C 	0.63439 0.24854 0.01295 -0.03700
C 	C 	0.65140 0.19012 -0.00017 -0.01900
C 	C 	0.76515 0.18185 -0.00229 -0.08700
C 	C 	0.82254 0.18853 -0.03409 0.21500
F 	F 	0.77595 0.18215 -0.07538 -0.41300
C 	C 	0.92033 0.21598 -0.01530 0.24600
F 	F 	0.95195 0.24680 0.96981 -0.38900
C 	C 	0.96975 0.22446 0.02791 -0.19600
C 	C 	0.92186 0.20077 0.04909 0.26800
F 	F 	0.96758 0.20910 0.09141 -0.39500
C 	C 	0.81800 0.18151 0.03555 0.22000
F 	F 	0.76707 0.16975 0.06382 -0.38900
H 	H 	0.52329 0.29796 0.01044 0.06800
H 	H 	0.48984 0.27499 0.04673 0.06000
H 	H 	0.66874 0.28257 0.05331 0.04600
H 	H 	0.67524 0.25387 -0.01316 0.08700
H 	H 	0.61337 0.15390 -0.03804 0.06600
H 	H 	0.61804 0.18977 0.03049 0.07200
C 	C 	0.03335 0.74871 0.00821 -0.22100
C 	C 	0.09265 0.70592 0.00963 -0.01300
C 	C 	0.17382 0.67396 -0.03222 -0.02600
C 	C 	0.28306 0.69923 -0.00970 -0.07900
C 	C 	0.34667 0.67799 0.00933 0.22200
F 	F 	0.31755 0.62909 0.00110 -0.35100
C 	C 	0.43847 0.70876 0.03938 0.28100
F 	F 	0.48827 0.69322 0.06533 -0.37200
C 	C 	0.47198 0.75894 0.04770 -0.20100
C 	C 	0.41013 0.77845 0.02673 0.27200
F 	F 	0.43054 0.83102 0.04116 -0.42100
C 	C 	0.31901 0.74782 -0.00335 0.20800
F 	F 	0.26267 0.76776 -0.02362 -0.40700
H 	H 	0.08730 0.77390 1.00307 0.15100
H 	H 	0.00036 0.77976 1.04625 0.09600
H 	H 	0.03576 0.67431 0.00481 0.06200
H 	H 	0.13016 0.72911 0.04952 0.08100
H 	H 	0.15708 0.67364 -0.06586 0.06600
H 	H 	0.16767 0.62825 -0.04952 0.08100
C 	C 	0.00511 0.92828 0.56344 -0.14000
C 	C 	0.07473 0.94229 0.53473 -0.02700
C 	C 	0.01877 0.93155 0.48676 -0.02300
C 	C 	-0.01568 -0.01435 0.49873 -0.07400
C 	C 	0.88068 0.99826 0.50606 0.22500
F 	F 	0.81053 0.96459 0.50715 -0.36700
C 	C 	0.84753 0.04421 0.50974 0.29400
F 	F 	0.74566 0.05126 0.51031 -0.33800
C 	C 	0.91732 0.07922 0.50764 -0.15000
C 	C 	0.02213 0.06857 0.50335 0.28300
F 	F 	0.09160 0.10091 0.50019 -0.34100
C 	C 	0.05527 0.02209 0.49883 0.22500
F 	F 	0.15577 0.01057 0.49145 -0.37600
H 	H 	-0.06934 0.90597 0.54104 0.10600
H 	H 	-0.01302 0.96838 0.60156 0.10400
H 	H 	0.14272 0.91641 0.52098 0.05700
H 	H 	0.10697 0.98709 0.56295 0.08100
H 	H 	-0.04637 0.89873 0.47002 0.08500
H 	H 	0.07204 0.91260 0.45465 0.07900
C 	C 	0.18071 0.06919 0.01363 -0.18200
C 	C 	0.14240 0.10118 0.06876 -0.01000
C 	C 	0.02421 0.09522 0.06734 -0.03600
C 	C 	-0.00951 0.04713 0.06755 -0.06800
C 	C 	0.94261 -0.00409 0.02282 0.23400
F 	F 	0.92432 -0.01126 -0.02216 -0.39000
C 	C 	0.91458 0.95133 0.02406 0.25300
F 	F 	0.86852 0.90235 0.98049 -0.38100
C 	C 	0.93440 0.95769 0.07009 -0.14800
C 	C 	0.98465 1.00882 0.11424 0.27500
F 	F 	0.00966 1.01651 0.15903 -0.38000
C 	C 	0.01066 1.05316 0.11316 0.22900
F 	F 	0.05702 1.10223 0.15682 -0.36100
H 	H 	0.14197 0.02578 0.98640 0.13200
H 	H 	0.26458 0.06463 1.01545 0.11700
H 	H 	0.16930 0.14692 0.09395 0.08300
H 	H 	0.17934 0.08457 0.08746 0.07900
H 	H 	-0.01198 0.08977 0.03308 0.11100
H 	H 	-0.00397 0.13467 0.10254 0.15100
C 	C 	0.72503 0.44147 0.53519 -0.13400
C 	C 	0.63268 0.47407 0.54098 -0.03800
C 	C 	0.66573 0.52065 0.53725 -0.01700
C 	C 	0.57484 0.53998 0.52414 -0.07500
C 	C 	0.54308 0.51267 0.47157 0.22900
F 	F 	0.58701 0.46520 0.43228 -0.38200
C 	C 	0.46880 0.53544 0.45907 0.28200
F 	F 	0.44175 0.50891 0.40785 -0.37600
C 	C 	0.42571 0.58604 0.49907 -0.14300
C 	C 	0.44857 0.60914 0.55160 0.29700
F 	F 	0.40281 0.65537 0.59129 -0.36400
C 	C 	0.52376 0.58674 0.56403 0.23300
F 	F 	0.54952 0.61207 0.61509 -0.36500
H 	H 	0.79114 0.47149 0.56177 0.09500
H 	H 	0.74920 0.41596 0.49439 0.09100
H 	H 	0.60030 0.49402 0.57959 0.08400
H 	H 	0.57255 0.44376 0.50961 0.08500
H 	H 	0.72229 0.50516 0.50687 0.08600
H 	H 	0.70634 0.55691 0.57500 0.08600
C 	C 	0.42026 0.41087 0.01020 -0.14200
C 	C 	0.53695 0.42392 0.02369 -0.04000
C 	C 	0.59666 0.41823 0.98075 -0.01200
C 	C 	0.59841 0.47082 0.98425 -0.05700
C 	C 	0.51765 0.47906 0.96053 0.25600
F 	F 	0.43380 0.44170 0.93686 -0.36100
C 	C 	0.52478 0.52453 -0.04108 0.25500
F 	F 	0.44650 0.53091 0.93505 -0.33500
C 	C 	0.61287 0.56241 -0.01912 -0.13500
C 	C 	0.69402 0.55371 0.00383 0.29400
F 	F 	0.78453 0.58539 0.01961 -0.37800
C 	C 	0.68628 0.50906 0.00638 0.21000
F 	F 	0.76705 0.50171 0.02834 -0.38200
H 	H 	0.40410 0.38097 -0.03293 0.12600
H 	H 	0.38194 0.45024 0.02532 0.13400
H 	H 	0.56747 0.39342 0.02870 0.04300
H 	H 	0.55250 0.46707 0.06179 0.07900
H 	H 	0.56633 0.38045 0.94108 0.08400
H 	H 	0.67693 0.40916 0.98431 0.09500
C 	C 	1.02684 0.32282 0.43767 -0.13500
C 	C 	1.02237 0.30645 0.38253 -0.03800
C 	C 	0.93143 0.32934 0.37081 -0.02000
C 	C 	0.96493 0.34482 0.33674 -0.07400
C 	C 	0.99509 0.40163 0.35948 0.21800
F 	F 	0.97700 0.44430 0.41001 -0.39400
C 	C 	1.05308 0.41427 0.33196 0.26600
F 	F 	1.09047 0.46854 0.35652 -0.42400
C 	C 	1.08135 0.37043 0.28156 -0.21800
C 	C 	1.04107 0.31452 0.25666 0.28500
F 	F 	1.06675 0.27142 0.20761 -0.37800
C 	C 	0.98293 0.30177 0.28397 0.21900
F 	F 	0.95226 0.24678 0.26046 -0.36200
H 	H 	1.01562 0.36864 0.46791 0.10800
H 	H 	1.10570 0.31610 0.44544 0.10300
H 	H 	1.02130 0.25961 0.35197 0.09500
H 	H 	1.09619 0.32379 0.37947 0.08500
H 	H 	0.90355 0.36693 0.40780 0.08500
H 	H 	0.86591 0.29656 0.35060 0.09000
C 	C 	1.08076 0.59163 0.21371 -0.17700
C 	C 	0.96712 0.60373 0.22320 -0.01200
C 	C 	0.94336 0.66244 0.24033 -0.03600
C 	C 	0.94121 0.66481 0.19533 -0.06800
C 	C 	1.03130 0.68091 0.18356 0.22300
F 	F 	0.12198 0.69219 0.21072 -0.38300
C 	C 	1.02770 0.68998 0.14655 0.28000
F 	F 	0.11471 0.70993 0.13928 -0.37800
C 	C 	0.93358 0.68531 0.12189 -0.14500
C 	C 	0.84308 0.66912 0.13346 0.30200
F 	F 	0.74942 0.67208 0.11629 -0.35200
C 	C 	0.84743 0.65698 0.16847 0.23700
F 	F 	0.75883 0.64178 0.17906 -0.35400
H 	H 	1.10742 0.59619 0.18451 0.13800
H 	H 	1.08945 0.54695 0.19728 0.04500
H 	H 	0.94453 0.60044 0.25386 -0.04000
H 	H 	0.91952 0.57032 0.18686 0.05400
H 	H 	0.99920 0.69585 0.27246 0.08200
H 	H 	0.86767 0.67284 0.25785 0.09700
C 	C 	0.92498 0.39123 0.80626 -0.15300
C 	C 	0.98095 0.33846 0.76502 -0.03300
C 	C 	0.08234 0.33395 0.78697 -0.03900
C 	C 	0.06858 0.31797 0.82246 -0.06600
C 	C 	0.11377 0.35289 0.87407 0.22400
F 	F 	0.16429 0.40346 0.89417 -0.35400
C 	C 	0.11300 0.33448 0.90442 0.28500
F 	F 	0.16447 0.36724 0.95229 -0.37900
C 	C 	0.06558 0.28113 0.88394 -0.15800
C 	C 	0.01423 0.24823 0.83379 0.27800
F 	F 	0.96447 0.19730 0.81311 -0.37300
C 	C 	0.01878 0.26543 0.80283 0.21600
F 	F 	0.97959 0.22881 0.75247 -0.37600
H 	H 	0.90699 0.39118 0.83930 0.10800
H 	H 	0.97404 0.43029 0.82166 0.03500
H 	H 	0.99918 0.34036 0.73304 0.02500
H 	H 	0.92880 0.29984 0.74684 0.10200
H 	H 	0.12994 0.37451 0.80711 0.09600
H 	H 	1.12556 0.30090 0.75346 0.10500
C 	C 	0.51916 0.20527 0.11476 -0.14200
C 	C 	0.50456 0.21515 0.16626 -0.02600
C 	C 	0.41836 0.17567 0.16242 -0.02400
C 	C 	0.46046 0.14829 0.18495 -0.07200
C 	C 	0.52741 0.10454 0.15593 0.21300
F 	F 	0.53511 0.07807 0.10417 -0.38800
C 	C 	0.59467 0.09224 0.18127 0.28500
F 	F 	0.66662 0.05449 0.15376 -0.39000
C 	C 	0.59306 0.12191 0.23540 -0.21700
C 	C 	0.51765 0.16054 0.26317 0.26300
F 	F 	0.51524 0.18991 0.31564 -0.43100
C 	C 	0.45224 0.17410 0.23821 0.22100
F 	F 	0.38836 0.21641 0.26718 -0.37600
H 	H 	0.51597 0.15916 0.08124 0.11400
H 	H 	0.59705 0.22369 0.11777 0.10400
H 	H 	0.49042 0.26027 0.19806 0.07400
H 	H 	0.57994 0.20873 0.17813 0.08500
H 	H 	0.38705 0.14229 0.12143 0.07600
H 	H 	0.35314 0.20144 0.18454 0.10200
C 	C 	0.51419 0.86489 0.96962 -0.13300
C 	C 	0.58965 0.90217 0.96535 -0.03600
C 	C 	0.62446 0.87160 0.90945 -0.02300
C 	C 	0.53961 0.86504 0.87304 -0.07200
C 	C 	0.48524 0.81224 0.83591 0.22500
F 	F 	0.50588 0.76626 0.83218 -0.37900
C 	C 	0.40554 0.80650 0.80338 0.29000
F 	F 	0.35720 0.75423 0.76695 -0.37000
C 	C 	0.37620 0.85372 0.80796 -0.19700
C 	C 	0.43176 0.90643 0.84398 0.25700
F 	F 	0.40537 0.95276 0.84922 -0.48200
C 	C 	0.51304 0.91201 0.87629 0.21600
F 	F 	0.56493 0.96344 0.91135 -0.38500
H 	H 	0.45180 0.84471 0.93791 0.11900
H 	H 	0.47746 0.89213 1.00741 0.13000
H 	H 	0.65778 0.91658 0.99310 0.10700
H 	H 	0.55237 0.94117 0.97819 0.10900
H 	H 	0.65242 0.82979 0.89425 0.10800
H 	H 	0.69168 0.89631 0.91068 0.12300
C 	C 	0.38048 0.87344 0.46909 -0.13200
C 	C 	0.45041 0.86029 0.42630 -0.03700
C 	C 	0.39101 0.84098 0.37587 -0.02500
C 	C 	0.46606 0.83945 0.34073 -0.06600
C 	C 	0.48156 0.88623 0.34113 0.22000
F 	F 	0.41865 0.92953 0.36669 -0.37700
C 	C 	0.56451 0.88981 0.31691 0.27400
F 	F 	0.58030 0.93676 0.32024 -0.52500
C 	C 	0.63337 0.84680 0.29200 -0.19300
C 	C 	0.61467 0.79859 0.28927 0.29500
F 	F 	0.67830 0.75554 0.26459 -0.36400
C 	C 	0.53132 0.79480 0.31307 0.22500
F 	F 	0.51697 0.74864 0.31119 -0.37900
H 	H 	0.30994 0.89310 0.46909 0.08900
H 	H 	0.42381 0.90523 0.50733 0.12700
H 	H 	0.50425 0.82800 0.41744 0.10700
H 	H 	0.49809 0.89993 0.44206 0.10400
H 	H 	0.33147 0.87119 0.38586 0.09900
H 	H 	0.35109 0.79834 0.35577 0.09400
C 	C 	0.40303 0.10484 0.73286 -0.14000
C 	C 	0.44296 0.16739 0.76639 -0.04300
C 	C 	0.54231 0.17690 0.74788 -0.02000
C 	C 	0.52617 0.18237 0.70495 -0.07700
C 	C 	0.57415 0.14664 0.65752 0.23300
F 	F 	0.62291 0.10176 0.64665 -0.36600
C 	C 	0.58141 0.16008 0.62338 0.28200
F 	F 	0.63894 0.12893 0.58164 -0.34400
C 	C 	0.53865 0.20869 0.63538 -0.14500
C 	C 	0.48041 0.24052 0.67992 0.27400
F 	F 	0.43459 0.28695 0.69250 -0.38400
C 	C 	0.47702 0.22870 0.71504 0.22600
F 	F 	0.43391 0.26592 0.76125 -0.38000
H 	H 	0.38275 0.08792 0.69200 0.09900
H 	H 	0.46247 0.07933 0.73277 0.02300
H 	H 	0.45966 0.18288 0.80713 0.04200
H 	H 	0.38167 0.19287 0.76793 0.10200
H 	H 	0.59395 0.14291 0.73636 0.08900
H 	H 	0.58313 0.21712 0.78211 0.08400
C 	C 	-0.01841 0.63661 0.57288 -0.13900
C 	C 	1.04656 0.60445 0.58548 -0.01900
C 	C 	0.08753 0.64005 0.64308 -0.03800
C 	C 	0.00611 0.64789 0.67878 -0.06900
C 	C 	-0.05659 0.69373 0.70222 0.21800
F 	F 	-0.04595 0.73207 0.69350 -0.39000
C 	C 	-0.13132 0.70087 0.73521 0.29400
F 	F 	-0.19073 0.74549 0.75623 -0.37300
C 	C 	-0.14376 0.66299 0.74668 -0.19900
C 	C 	0.92106 0.61809 0.72444 0.28300
F 	F 	0.91244 0.58072 0.73438 -0.54500
C 	C 	0.99439 0.61028 0.69045 0.21200
F 	F 	1.05372 0.56556 0.66866 -0.38000
H 	H 	-0.08574 0.65267 0.59711 0.11800
H 	H 	-0.04879 0.60628 0.53136 0.09900
H 	H 	1.11305 0.58869 0.56045 0.08100
H 	H 	0.99947 0.56657 0.57472 0.07600
H 	H 	0.12350 0.68154 0.65692 0.10700
H 	H 	1.15094 0.61775 0.64509 0.11800
