data_crystal

_cell_length_a 21.96340
_cell_length_b 19.67600
_cell_length_c 23.51500
_cell_angle_alpha 100.90570
_cell_angle_beta  106.06680
_cell_angle_gamma 70.10680

_symmetry_space_group_name_	'P 1'
_symmetry_space_group_name_H-M	'P 1'

loop_
_symmetry_equiv_pos_as_xyz
  x,y,z

loop_
_atom_site_label
_atom_site_type_symbol
_atom_site_fract_x
_atom_site_fract_y
_atom_site_fract_z
_atom_site_charge
Mn	Mn	0.93492 0.76615 0.08367 1.27600
Mn	Mn	0.87269 0.93229 0.02805 1.28300
Mn	Mn	0.08618 0.21838 0.94358 1.23500
Mn	Mn	0.13855 0.04506 0.98476 1.28300
Mn	Mn	0.00132 -0.01140 -0.00253 1.25100
C 	C 	0.88707 0.87205 0.18775 0.17900
N 	N 	0.89249 0.85863 0.13115 -0.24000
N 	N 	0.86765 0.92228 0.11018 -0.18200
N 	N 	0.84674 0.97374 0.15178 -0.01000
N 	N 	0.85815 0.94370 0.20129 -0.04100
N 	N 	0.84942 0.08348 0.08569 -0.08800
N 	N 	0.88594 0.03026 0.05450 -0.20400
N 	N 	0.93231 0.05072 0.04339 -0.18900
N 	N 	0.92822 0.11812 0.06761 -0.09000
C 	C 	0.87653 0.13772 0.09389 0.17700
C 	C 	0.86588 0.92372 0.85395 0.17500
N 	N 	0.88095 0.93840 0.94669 -0.18400
N 	N 	0.84135 0.91803 0.89841 -0.07700
N 	N 	0.01849 0.90048 0.04100 -0.23600
N 	N 	0.97040 0.88109 0.04982 -0.18000
N 	N 	0.99468 0.81816 0.07214 -0.17300
N 	N 	0.06009 0.79437 0.08044 -0.09200
N 	N 	0.92807 0.95616 0.93328 -0.17200
N 	N 	0.92059 0.94685 0.87460 -0.05000
C 	C 	0.07491 0.84673 0.06187 0.17300
N 	N 	0.13008 0.13092 0.89248 -0.25100
N 	N 	0.15060 0.06409 0.90734 -0.18500
N 	N 	0.16909 0.01724 0.86229 -0.03500
N 	N 	0.16007 0.05362 0.81681 -0.07100
N 	N 	0.15831 0.89950 0.91542 -0.07200
N 	N 	0.12155 0.94955 0.94834 -0.18700
N 	N 	0.07079 0.92962 0.95115 -0.18500
N 	N 	0.07209 0.86627 0.91930 -0.09300
N 	N 	0.06539 0.02746 0.12077 -0.08600
N 	N 	0.07029 0.01761 0.06494 -0.20200
N 	N 	0.12292 0.03276 0.06148 -0.19700
N 	N 	0.15406 0.05409 0.11508 -0.07000
N 	N 	0.98959 0.07765 0.95614 -0.21000
N 	N 	0.04143 0.09930 0.95923 -0.20300
N 	N 	0.02194 0.16529 0.94309 -0.21000
N 	N 	0.95672 0.18935 0.92701 -0.07400
Cl	Cl	0.86230 0.81868 0.00216 -0.70500
Cl	Cl	0.15254 0.15558 1.02187 -0.66700
C 	C 	0.13551 0.12449 0.83629 0.13100
C 	C 	0.12691 0.84829 0.89747 0.18000
C 	C 	0.11753 0.05010 0.15149 0.18100
C 	C 	0.93661 0.13447 0.93460 0.17700
Mn	Mn	0.36239 0.32240 0.55651 1.24100
Mn	Mn	0.33275 0.48861 0.50785 1.28200
Mn	Mn	0.63795 0.66181 0.41811 1.23800
Mn	Mn	0.64353 0.50927 0.47141 1.28700
Mn	Mn	0.48381 0.50794 0.48620 1.27300
C 	C 	0.32755 0.43033 0.66345 0.15200
N 	N 	0.33352 0.41728 0.60701 -0.24100
N 	N 	0.31952 0.48149 0.58873 -0.18100
N 	N 	0.30324 0.53335 0.63171 -0.03100
N 	N 	0.30809 0.50285 0.67942 -0.06100
N 	N 	0.33767 0.63410 0.57164 -0.08800
N 	N 	0.36614 0.57654 0.53829 -0.19500
N 	N 	0.41690 0.58672 0.52519 -0.19300
N 	N 	0.42260 0.65110 0.54940 -0.08800
C 	C 	0.37287 0.68079 0.57839 0.14000
C 	C 	0.35634 0.43731 0.34041 0.14500
N 	N 	0.35026 0.48640 0.42792 -0.18900
N 	N 	0.31805 0.45566 0.37993 -0.08000
N 	N 	0.47917 0.43515 0.53652 -0.22600
N 	N 	0.42374 0.41915 0.52836 -0.19700
N 	N 	0.43563 0.35719 0.54884 -0.20300
N 	N 	0.49887 0.33274 0.57516 -0.10700
N 	N 	0.40696 0.48736 0.41926 -0.18600
N 	N 	0.41252 0.45665 0.36482 -0.08700
C 	C 	0.52653 0.38231 0.56924 0.13700
N 	N 	0.67661 0.56098 0.37861 -0.24400
N 	N 	0.67163 0.50323 0.39552 -0.18900
N 	N 	0.70494 0.44330 0.36760 -0.03500
N 	N 	0.73213 0.46115 0.33122 -0.06600
N 	N 	0.63334 0.36847 0.40598 -0.08500
N 	N 	0.60642 0.42663 0.43966 -0.20100
N 	N 	0.54927 0.42494 0.44613 -0.18900
N 	N 	0.53695 0.36479 0.41661 -0.08900
N 	N 	0.55516 0.55518 0.60920 -0.08800
N 	N 	0.55865 0.52902 0.55351 -0.18900
N 	N 	0.61898 0.51814 0.54751 -0.19500
N 	N 	0.65709 0.53534 0.59829 -0.06200
N 	N 	0.49400 0.58116 0.43794 -0.22100
N 	N 	0.55515 0.58040 0.43877 -0.19600
N 	N 	0.55408 0.63661 0.41535 -0.19900
N 	N 	0.49220 0.67600 0.39654 -0.10400
Cl	Cl	0.29965 0.38768 0.47909 -0.71600
Cl	Cl	0.67903 0.60799 0.50435 -0.69400
C 	C 	0.71558 0.53448 0.33893 0.13700
C 	C 	0.58968 0.33032 0.39184 0.14900
C 	C 	0.61732 0.55794 0.63666 0.17000
C 	C 	0.45395 0.64133 0.40883 0.13200
C 	C 	0.86517 0.13710 0.91418 -0.10200
C 	C 	0.83602 0.16900 0.85494 -0.06100
C 	C 	0.83837 0.12420 0.80089 0.22600
F 	F 	0.86952 0.05194 0.80034 -0.40000
C 	C 	0.80795 0.15332 0.74660 0.23200
F 	F 	0.80687 0.10736 0.69561 -0.39600
C 	C 	0.77978 0.22883 0.74494 -0.09000
C 	C 	0.74451 0.25947 0.68587 -0.02700
C 	C 	0.67357 0.31061 0.68043 0.02000
C 	C 	0.64209 0.34687 0.62840 0.04500
I 	I 	0.68802 0.32292 0.55541 -0.08700
C 	C 	0.57748 0.39627 0.62255 -0.04800
C 	C 	0.55404 0.42502 0.67527 0.02800
I 	I 	0.46618 0.51498 0.67456 -0.07100
C 	C 	0.58308 0.38725 0.72615 0.06600
N 	N 	0.55535 0.40931 0.77786 -0.18200
C 	C 	0.63691 0.32379 0.72443 0.03400
I 	I 	0.63935 0.23940 0.77099 -0.04700
C 	C 	0.78575 0.27458 0.79877 0.23900
F 	F 	0.76396 0.34791 0.79851 -0.38400
C 	C 	0.81121 0.24484 0.85331 0.22600
F 	F 	0.81190 0.29016 0.90461 -0.37700
H 	H 	0.85926 0.08291 0.91034 0.08100
H 	H 	0.83798 0.17198 0.94784 0.11000
H 	H 	0.74337 0.21484 0.64919 0.09300
H 	H 	0.77539 0.28966 0.67805 0.08500
H 	H 	0.58229 0.38909 0.81846 0.14300
H 	H 	0.50894 0.44762 0.77795 0.12900
C 	C 	0.85326 0.21021 0.12880 -0.08900
C 	C 	0.79318 0.21570 0.15099 -0.06100
C 	C 	0.72915 0.25532 0.12216 0.22800
F 	F 	0.72069 0.29450 0.07726 -0.37900
C 	C 	0.67304 0.25176 0.13710 0.23800
F 	F 	0.61193 0.28771 0.10594 -0.38600
C 	C 	0.67976 0.20883 0.18153 -0.08700
C 	C 	0.61827 0.19708 0.19031 -0.02500
C 	C 	0.61720 0.19602 0.25466 0.02800
C 	C 	0.60576 0.26159 0.29303 0.04400
I 	I 	0.59744 0.36114 0.26226 -0.02400
C 	C 	0.59721 0.26239 0.35068 -0.03500
C 	C 	0.59910 0.19768 0.36961 0.03400
I 	I 	0.57892 0.19927 0.45396 -0.08800
C 	C 	0.61383 0.13152 0.33280 0.06600
N 	N 	0.61961 0.06510 0.35377 -0.18000
C 	C 	0.62316 0.13047 0.27557 0.02700
I 	I 	0.65125 0.02748 0.22315 0.01100
C 	C 	0.74420 0.17148 0.21190 0.24200
F 	F 	0.75338 0.12935 0.25479 -0.38500
C 	C 	0.80025 0.17542 0.19710 0.22900
F 	F 	0.86169 0.13695 0.22578 -0.37600
H 	H 	0.89421 0.21782 0.16706 0.11000
H 	H 	0.84174 0.25350 0.09975 0.11300
H 	H 	0.61239 0.14691 0.16228 0.07100
H 	H 	0.57302 0.23958 0.17083 0.08300
H 	H 	0.61112 0.02055 0.32465 0.11700
H 	H 	0.63304 0.05855 0.39898 0.11600
C 	C 	0.91320 0.81605 0.23027 -0.11800
C 	C 	0.88138 0.75665 0.20676 -0.08200
C 	C 	0.81989 0.76392 0.21813 0.22700
F 	F 	0.78716 0.82593 0.24759 -0.38200
C 	C 	0.79449 0.70521 0.20364 0.23500
F 	F 	0.73744 0.71181 0.21915 -0.39400
C 	C 	0.83110 0.63796 0.17877 -0.08500
C 	C 	0.81573 0.56940 0.18167 -0.03500
C 	C 	0.81553 0.56410 0.24549 0.03200
C 	C 	0.75893 0.55923 0.26028 0.05900
I 	I 	0.68213 0.52725 0.19329 -0.00100
C 	C 	0.75421 0.57186 0.32042 -0.06800
C 	C 	0.80232 0.59820 0.36380 0.03500
I 	I 	0.78675 0.64699 0.44924 -0.16800
C 	C 	0.86174 0.59474 0.35007 0.07800
N 	N 	0.91347 0.61546 0.39490 -0.18100
C 	C 	0.87048 0.57101 0.29202 0.00700
I 	I 	0.96858 0.53884 0.27715 0.01700
C 	C 	0.88747 0.63422 0.15947 0.23300
F 	F 	0.92080 0.57192 0.13075 -0.39900
C 	C 	0.91364 0.69251 0.17503 0.17400
F 	F 	0.97278 0.68439 0.16280 -0.49800
H 	H 	0.96807 0.79394 0.23633 0.10400
H 	H 	0.90353 0.84081 0.27473 0.12700
H 	H 	0.85269 0.51991 0.16611 0.10000
H 	H 	0.76696 0.57241 0.15069 0.09300
H 	H 	0.94706 0.63437 0.38354 0.12500
H 	H 	0.92091 0.60983 0.43974 0.13300
C 	C 	0.14526 0.84260 0.06426 -0.09200
C 	C 	0.19296 0.83484 0.12527 -0.06300
C 	C 	0.26166 0.81012 0.12748 0.22700
F 	F 	0.28375 0.79258 0.07637 -0.37900
C 	C 	0.30846 0.80547 0.18196 0.24000
F 	F 	0.37396 0.78465 0.18135 -0.38200
C 	C 	0.28800 0.82512 0.23613 -0.07400
C 	C 	0.33902 0.82666 0.29475 -0.03700
C 	C 	0.33713 0.78175 0.34021 0.03200
C 	C 	0.36292 0.70453 0.33339 0.03900
I 	I 	0.40173 0.64786 0.25814 -0.01000
C 	C 	0.37985 0.66628 0.38378 -0.04400
C 	C 	0.33678 0.69658 0.42267 0.02200
I 	I 	0.26033 0.64897 0.41166 -0.09900
C 	C 	0.31253 0.77277 0.43296 0.06800
N 	N 	0.27322 0.80537 0.47628 -0.18300
C 	C 	0.31820 0.81579 0.39432 0.01600
I 	I 	0.29705 0.93029 0.42004 0.05200
C 	C 	0.21937 0.85155 0.23423 0.24500
F 	F 	0.19756 0.87579 0.28525 -0.37300
C 	C 	0.17230 0.85675 0.17961 0.22700
F 	F 	0.10697 0.88617 0.18063 -0.39400
H 	H 	0.16422 0.79482 0.03310 0.09600
H 	H 	0.14684 0.89070 0.04816 0.06400
H 	H 	0.33125 0.88446 0.31199 0.11200
H 	H 	0.39023 0.80799 0.28752 0.09000
H 	H 	0.24373 0.85957 0.47780 0.12100
H 	H 	0.26813 0.77369 0.50431 0.11000
C 	C 	0.12563 0.07818 0.21611 -0.09000
C 	C 	0.18402 0.10730 0.23940 -0.06300
C 	C 	0.23599 0.07680 0.28612 0.22600
F 	F 	0.23421 0.02096 0.31085 -0.39300
C 	C 	0.28945 0.10458 0.30852 0.23400
F 	F 	0.33723 0.07627 0.35588 -0.41200
C 	C 	0.29369 0.16142 0.28298 -0.08900
C 	C 	0.35195 0.19033 0.31202 -0.02300
C 	C 	0.35804 0.24881 0.28236 0.03000
C 	C 	0.32804 0.32208 0.30080 0.05400
I 	I 	0.23696 0.35071 0.32965 0.01200
C 	C 	0.35332 0.37577 0.29284 -0.03000
C 	C 	0.39031 0.36000 0.24916 0.03000
I 	I 	0.40514 0.44789 0.21983 -0.02900
C 	C 	0.41138 0.28800 0.22176 0.06700
N 	N 	0.44633 0.27199 0.17507 -0.18500
C 	C 	0.39916 0.23149 0.24174 0.02000
I 	I 	0.43808 0.12035 0.20759 -0.05200
C 	C 	0.24207 0.19065 0.23449 0.24200
F 	F 	0.24362 0.24390 0.20621 -0.38900
C 	C 	0.18642 0.16605 0.21510 0.23000
F 	F 	0.13469 0.19945 0.17219 -0.38500
H 	H 	0.07963 0.12264 0.22211 0.10200
H 	H 	0.12986 0.03364 0.24116 0.13100
H 	H 	0.39878 0.14448 0.31675 0.07600
H 	H 	0.34889 0.21163 0.35877 0.06500
H 	H 	0.46201 0.21969 0.15378 0.11400
H 	H 	0.45592 0.31225 0.15903 0.12500
C 	C 	0.63928 0.58783 0.70025 -0.08800
C 	C 	0.69004 0.62716 0.70576 -0.05500
C 	C 	0.75213 0.58902 0.69202 0.23700
F 	F 	0.77215 0.51527 0.68303 -0.38100
C 	C 	0.79304 0.62644 0.68503 0.24300
F 	F 	0.84900 0.58799 0.66543 -0.38000
C 	C 	0.77634 0.70256 0.69683 -0.07900
C 	C 	0.82096 0.73917 0.68252 -0.02900
C 	C 	0.81114 0.81832 0.70737 0.02500
C 	C 	0.85197 0.83721 0.76240 0.06900
I 	I 	0.93865 0.75854 0.80674 0.01400
C 	C 	0.83336 0.90824 0.79119 -0.01700
C 	C 	0.77378 0.95918 0.76537 0.10700
I 	I 	0.72484 0.04980 0.81973 -0.04200
C 	C 	0.73993 -0.05541 0.70656 0.03800
N 	N 	0.68454 0.00085 0.67846 -0.17100
C 	C 	0.75839 0.87382 0.67725 0.08800
I 	I 	0.70194 -0.15057 0.59005 -0.09800
C 	C 	0.71826 0.73984 0.71885 0.24400
F 	F 	0.70158 0.81208 0.73671 -0.39200
C 	C 	0.67532 0.70247 0.72226 0.23200
F 	F 	0.61920 0.74027 0.74181 -0.38200
H 	H 	0.59463 0.62460 0.71577 0.11500
H 	H 	0.66187 0.54227 0.72851 0.11200
H 	H 	0.81452 0.73339 0.63355 0.09200
H 	H 	0.87349 0.70684 0.69771 0.10100
H 	H 	0.64613 -0.01031 0.64455 0.11100
H 	H 	0.68048 0.05549 0.69218 0.12300
C 	C 	0.14812 0.78244 0.85519 -0.09000
C 	C 	0.16803 0.80367 0.80627 -0.05800
C 	C 	0.12079 0.82637 0.75403 0.23300
F 	F 	0.05787 0.82337 0.74440 -0.38500
C 	C 	0.13723 0.85501 0.71231 0.24000
F 	F 	0.08974 0.87829 0.66306 -0.38200
C 	C 	0.20129 0.86173 0.72210 -0.08000
C 	C 	0.21681 0.89721 0.67816 -0.03100
C 	C 	0.28500 0.85803 0.66451 0.03200
C 	C 	0.29662 0.78954 0.62953 0.03700
I 	I 	0.21394 0.74547 0.59623 -0.03500
C 	C 	0.35961 0.75413 0.61435 -0.03000
C 	C 	0.40962 0.78994 0.63399 0.03200
I 	I 	0.50515 0.74723 0.61149 -0.03200
C 	C 	0.39845 0.85630 0.67096 0.07600
N 	N 	0.45064 0.88943 0.69427 -0.17900
C 	C 	0.33660 0.89048 0.68576 0.02900
I 	I 	0.32266 0.99398 0.73926 0.00700
C 	C 	0.24839 0.83926 0.77479 0.24500
F 	F 	0.30981 0.84732 0.78753 -0.37900
C 	C 	0.23218 0.80950 0.81584 0.23300
F 	F 	0.27833 0.78943 0.86656 -0.36500
H 	H 	0.19075 0.74118 0.87980 0.11900
H 	H 	0.10719 0.75776 0.83663 0.10600
H 	H 	0.21026 0.95462 0.69594 0.08500
H 	H 	0.17880 0.90105 0.63545 0.09400
H 	H 	0.45701 0.91653 0.73710 0.13900
H 	H 	0.48440 0.88719 0.66985 0.12900
C 	C 	0.34960 0.37237 0.70474 -0.08100
C 	C 	0.29322 0.36957 0.72837 -0.07500
C 	C 	0.29490 0.38439 0.78958 0.23700
F 	F 	0.34643 0.40333 0.82854 -0.37500
C 	C 	0.24281 0.38125 0.81126 0.23900
F 	F 	0.24529 0.39865 0.87039 -0.38200
C 	C 	0.18796 0.36257 0.77236 -0.08200
C 	C 	0.12790 0.36948 0.79565 -0.02800
C 	C 	0.10167 0.30414 0.77783 0.02200
C 	C 	0.13498 0.24088 0.80791 0.01000
I 	I 	0.22935 0.22921 0.86970 -0.06200
C 	C 	0.10570 0.18484 0.79852 -0.07100
C 	C 	0.04362 0.19084 0.75844 -0.00400
I 	I 	0.99735 0.10774 0.74760 0.02800
C 	C 	0.01132 0.25205 0.72651 0.04900
N 	N 	0.94846 0.25741 0.68504 -0.16800
C 	C 	0.03965 0.30907 0.73656 0.01800
I 	I 	-0.01567 0.40452 0.69113 0.02400
C 	C 	0.18710 0.34627 0.71117 0.23900
F 	F 	0.13547 0.32806 0.67198 -0.39200
C 	C 	0.23930 0.34947 0.68951 0.22900
F 	F 	0.23682 0.33380 0.63028 -0.43100
H 	H 	0.37045 0.31846 0.68079 0.01700
H 	H 	0.39115 0.38227 0.74137 0.09800
H 	H 	0.08950 0.42022 0.78129 0.07600
H 	H 	0.13827 0.38021 0.84497 0.07900
H 	H 	0.93265 0.28752 0.64879 0.13500
H 	H 	0.91614 0.23127 0.68925 0.12200
