data_crystal

_cell_length_a 32.20910
_cell_length_b 16.40660
_cell_length_c 8.53800
_cell_angle_alpha 91.85120
_cell_angle_beta  86.16870
_cell_angle_gamma 89.98750

_symmetry_space_group_name_	'P 1'
_symmetry_space_group_name_H-M	'P 1'

loop_
_symmetry_equiv_pos_as_xyz
  x,y,z

loop_
_atom_site_label
_atom_site_type_symbol
_atom_site_fract_x
_atom_site_fract_y
_atom_site_fract_z
_atom_site_charge
Eu	Eu	0.38203 0.71687 0.31494 1.85300
O 	O 	0.32903 0.82974 0.12013 -0.27900
C 	C 	0.29867 0.64828 0.21797 0.28200
O 	O 	0.42277 0.80062 0.04037 -0.29700
O 	O 	0.44677 0.77120 0.27454 -0.44800
O 	O 	0.42595 0.67769 0.77283 -0.24500
O 	O 	0.31800 0.66049 0.09341 -0.30200
O 	O 	0.31760 0.66184 0.35780 -0.43400
O 	O 	0.35574 0.84500 0.35800 -0.42600
C 	C 	0.33739 0.87554 0.22896 0.27100
O 	O 	0.38831 0.71746 0.57886 -0.41600
C 	C 	0.41599 0.66343 0.63946 0.28700
C 	C 	0.45216 0.80107 0.12368 0.26400
Eu	Eu	0.88300 0.75029 0.95992 1.75100
O 	O 	0.85180 0.85429 0.69120 -0.27600
C 	C 	0.82376 0.60880 1.00805 0.27300
O 	O 	0.96285 0.84411 0.88104 -0.31000
O 	O 	0.89753 0.88575 0.95403 -0.44200
O 	O 	0.95068 0.64067 0.83779 -0.31300
O 	O 	0.80913 0.64486 1.12602 -0.29600
O 	O 	0.86604 0.61582 0.96665 -0.42900
O 	O 	0.81897 0.77498 0.87191 -0.42900
C 	C 	0.81892 0.83136 0.75369 0.28200
O 	O 	0.91207 0.72847 0.71062 -0.40500
C 	C 	0.94107 0.66557 0.71182 0.27700
C 	C 	0.93865 0.90096 0.90482 0.28700
Eu	Eu	0.09386 0.25132 0.27075 1.84900
O 	O 	0.18253 0.19634 0.27446 -0.30200
C 	C 	0.15843 0.36978 0.39008 0.27800
O 	O 	0.12661 0.18965 -0.03732 -0.32300
O 	O 	0.06287 0.17565 0.08362 -0.43600
O 	O 	-0.00761 0.29727 0.61324 -0.24400
O 	O 	0.16262 0.37378 0.24728 -0.31700
O 	O 	0.12622 0.32364 0.45849 -0.44400
O 	O 	0.12264 0.13456 0.35288 -0.43000
C 	C 	0.16552 0.13440 0.32027 0.28100
O 	O 	0.03721 0.23224 0.43991 -0.42600
C 	C 	0.01734 0.30301 0.50083 0.27900
C 	C 	0.09327 0.15410 -0.03350 0.26900
Eu	Eu	0.63006 0.22861 0.77191 1.76700
O 	O 	0.71292 0.14848 0.78426 -0.31500
C 	C 	0.68446 0.35684 0.91385 0.23600
O 	O 	0.53935 0.22836 0.84007 -0.32100
O 	O 	0.58395 0.12365 0.79637 -0.44300
O 	O 	0.59297 0.39438 0.74844 -0.31300
O 	O 	0.70101 0.30598 0.99060 -0.28100
O 	O 	0.67462 0.33607 0.76138 -0.41600
O 	O 	0.67071 0.15826 0.58517 -0.42900
C 	C 	0.70892 0.14044 0.64340 0.27200
O 	O 	0.59394 0.28490 0.58058 -0.41900
C 	C 	0.58159 0.36409 0.62610 0.28200
C 	C 	0.54605 0.15614 0.85628 0.26500
C 	C 	0.25507 0.62116 0.22173 -0.03300
C 	C 	0.23877 0.57419 0.34518 -0.05200
C 	C 	0.19687 0.55056 0.35359 0.07100
C 	C 	0.17881 0.50751 0.49638 -0.09900
C 	C 	0.18732 0.41514 0.49381 -0.04100
N 	N 	0.23113 0.39598 0.45015 -0.17100
C 	C 	0.17097 0.57633 0.23885 -0.09500
C 	C 	0.18606 0.62912 0.12102 0.09400
N 	N 	0.15766 0.67026 0.02551 -0.13600
C 	C 	0.16715 0.71980 -0.09452 0.02400
C 	C 	0.13108 0.75567 -0.13602 0.02100
N 	N 	0.09874 0.72926 -0.04373 -0.11800
C 	C 	0.11598 0.67754 0.05289 0.08900
C 	C 	0.22879 0.64802 0.10973 -0.05700
H 	H 	0.25860 0.55645 0.43592 0.06000
H 	H 	0.19159 0.53597 0.60270 0.05900
H 	H 	0.14461 0.51793 0.51089 0.05500
H 	H 	0.18027 0.39476 0.61585 0.05100
H 	H 	0.23735 0.40205 0.32926 0.09800
H 	H 	0.23654 0.33493 0.47416 0.09000
H 	H 	0.13858 0.55855 0.24716 0.06100
H 	H 	0.19793 0.73142 0.85295 0.02500
H 	H 	0.12856 0.80024 0.77462 0.03300
H 	H 	0.09812 0.64848 0.14620 0.00900
H 	H 	0.24150 0.68786 0.02016 0.06400
C 	C 	0.77892 0.86388 0.70727 -0.04200
C 	C 	0.77770 0.92752 0.60182 -0.05300
C 	C 	0.73954 0.96119 0.56601 0.05800
C 	C 	0.73869 0.03021 0.45332 -0.09700
C 	C 	0.74530 0.11503 0.53103 -0.04000
N 	N 	0.78506 0.11927 0.60556 -0.17000
C 	C 	0.70226 0.92867 0.63202 -0.10100
C 	C 	0.70281 0.86337 0.73487 0.08600
N 	N 	0.66461 0.82789 0.79938 -0.13600
C 	C 	0.65964 0.78053 0.92534 0.01400
C 	C 	0.61873 0.75659 0.94129 0.00500
N 	N 	0.59768 0.78865 0.82676 -0.11600
C 	C 	0.62646 0.83185 0.74277 0.08400
C 	C 	0.74143 0.83200 0.77212 -0.05800
H 	H 	0.80643 0.95173 0.54860 0.05500
H 	H 	0.76312 0.01944 0.35652 0.05200
H 	H 	0.70858 0.03005 0.39664 0.05400
H 	H 	0.74682 0.15950 0.43518 0.04800
H 	H 	0.78322 0.08610 0.70835 0.09600
H 	H 	0.79044 0.18003 0.63943 0.09200
H 	H 	0.67298 0.95477 0.60320 0.05700
H 	H 	0.68369 0.76435 1.00144 0.02500
H 	H 	0.60511 0.71766 0.03068 0.03200
H 	H 	0.61947 0.86414 0.63929 0.01400
H 	H 	0.74242 0.78135 0.84965 0.06000
C 	C 	0.19013 0.05963 0.33859 -0.03500
C 	C 	0.23368 0.06307 0.33634 -0.05200
C 	C 	0.25714 0.99257 0.35616 0.06400
C 	C 	0.30356 0.99937 0.36926 -0.10300
C 	C 	0.33024 0.96625 0.22407 -0.03500
N 	N 	0.31347 -0.00913 0.07718 -0.16800
C 	C 	0.23678 0.91750 0.37432 -0.10300
C 	C 	0.19311 0.91272 0.37663 0.09000
N 	N 	0.17199 0.83642 0.40412 -0.13600
C 	C 	0.13336 0.81571 0.36617 0.01600
C 	C 	0.12410 0.74078 0.42719 0.01300
N 	N 	0.15669 0.71385 0.50217 -0.11900
C 	C 	0.18538 0.77331 0.48527 0.08500
C 	C 	0.17012 0.98440 0.35908 -0.06100
H 	H 	0.24942 0.12101 0.32180 0.06000
H 	H 	0.31183 0.06434 0.38937 0.06200
H 	H 	0.31210 0.96865 0.47668 0.06300
H 	H 	0.36147 0.99417 0.23023 0.04700
H 	H 	0.28702 0.95641 0.05539 0.09600
H 	H 	0.33573 -0.02215 -0.01519 0.09400
H 	H 	0.25501 0.86323 0.38854 0.06600
H 	H 	0.11319 0.85187 0.29901 0.02800
H 	H 	0.09521 0.70790 0.41876 0.02700
H 	H 	0.21512 0.77119 0.53697 0.01600
H 	H 	0.13652 0.98196 0.36340 0.05700
C 	C 	0.79648 0.56379 0.90299 -0.02900
C 	C 	0.75360 0.55683 0.94204 -0.05400
C 	C 	0.72746 0.51852 0.83717 0.06700
C 	C 	0.68148 0.51042 0.88038 -0.10100
C 	C 	0.67086 0.43867 0.98799 -0.03000
N 	N 	0.68738 0.45303 1.14237 -0.17600
C 	C 	0.74413 0.49063 0.68915 -0.10000
C 	C 	0.78683 0.49777 0.64799 0.09400
N 	N 	0.80347 0.47387 0.49288 -0.13600
C 	C 	0.84206 0.44668 0.45058 0.01400
C 	C 	0.84579 0.43756 0.28980 0.01300
N 	N 	0.80965 0.45838 0.23043 -0.11100
C 	C 	0.78455 0.48027 0.35763 0.09000
C 	C 	0.81292 0.53249 0.75711 -0.05800
H 	H 	0.74033 0.58188 1.05327 0.05700
H 	H 	0.66966 0.56810 0.93930 0.05500
H 	H 	0.66421 0.50265 0.77234 0.06500
H 	H 	0.63633 0.43686 1.00500 0.02700
H 	H 	0.71909 0.43856 1.13540 0.09500
H 	H 	0.67255 0.41340 0.22161 0.07900
H 	H 	0.72384 0.46275 0.60651 0.06800
H 	H 	0.86589 0.43430 0.53007 0.03400
H 	H 	0.87341 0.41791 0.22004 0.04200
H 	H 	0.75332 0.50346 0.35053 0.01700
H 	H 	0.84579 0.53844 0.72526 0.05700
C 	C 	0.43292 0.58947 0.55213 -0.10100
C 	C 	0.46484 0.54554 0.61603 -0.03000
C 	C 	0.47945 0.47170 0.54657 0.04400
C 	C 	0.51087 0.42242 0.62668 -0.09500
C 	C 	0.55277 0.41098 0.52998 -0.04400
N 	N 	0.57148 0.48986 0.49119 -0.16400
C 	C 	0.46321 0.44271 0.40734 -0.09400
C 	C 	0.43171 0.48592 0.33916 0.06600
N 	N 	0.41569 0.45602 0.19433 -0.14300
C 	C 	0.39990 0.50029 0.08224 0.03100
C 	C 	0.39139 0.44812 -0.04103 0.01000
N 	N 	0.40146 0.37128 -0.00703 -0.11600
C 	C 	0.41613 0.37829 0.13706 0.08600
C 	C 	0.41606 0.55834 0.41466 -0.03300
H 	H 	0.47770 0.56758 0.72366 0.04600
H 	H 	0.51674 0.45187 0.74230 0.06200
H 	H 	0.49706 0.36171 0.65168 0.05900
H 	H 	0.54779 0.37514 0.41992 0.04200
H 	H 	0.55268 0.51916 0.41506 0.08000
H 	H 	0.59983 0.47892 0.42663 0.07700
H 	H 	0.47517 0.38627 0.35297 0.05600
H 	H 	0.39588 0.56579 0.08691 -0.02000
H 	H 	0.37907 0.46498 0.84976 0.03600
H 	H 	0.42684 0.32661 0.19892 0.01800
H 	H 	0.38974 0.58779 0.36964 -0.11200
C 	C 	0.95274 0.98592 0.88528 -0.03700
C 	C 	0.99329 1.00339 0.82610 -0.05600
C 	C 	1.00721 0.08433 0.81727 0.07400
C 	C 	0.05035 0.10210 0.74521 -0.10100
C 	C 	0.08647 0.08496 -0.14973 -0.03700
N 	N 	0.08129 0.00762 -0.06951 -0.16900
C 	C 	0.97951 0.14818 0.86338 -0.09700
C 	C 	0.93806 0.13182 0.91531 0.09500
N 	N 	0.90881 0.19719 0.95463 -0.13400
C 	C 	0.87335 0.19390 1.04704 0.01500
C 	C 	0.85411 0.26863 1.04752 0.00900
N 	N 	0.87709 0.31923 0.95601 -0.11200
C 	C 	0.91018 0.27382 0.90165 0.08500
C 	C 	0.92515 1.05039 0.92632 -0.05900
H 	H 	0.01416 0.95408 0.78633 0.06100
H 	H 	0.05516 0.06437 0.63488 0.06000
H 	H 	0.05242 0.16655 0.70903 0.06400
H 	H 	0.11505 0.07969 -0.23036 0.05500
H 	H 	0.05843 0.01438 0.02301 0.09200
H 	H 	0.10908 -0.00556 -0.01854 0.08200
H 	H 	0.99035 0.21042 0.85886 0.07600
H 	H 	0.86213 0.14166 0.11104 0.03200
H 	H 	0.82512 0.28550 0.11142 0.04500
H 	H 	0.93445 0.29672 0.82218 0.03500
H 	H 	0.89335 1.03707 0.96559 0.06000
C 	C 	0.51510 0.10624 0.94615 -0.04200
C 	C 	0.52571 0.02920 -0.00116 -0.05200
C 	C 	0.49755 -0.01425 0.09787 0.06300
C 	C 	0.51001 0.90425 0.15868 -0.10100
C 	C 	0.49480 0.82952 0.06307 -0.03200
N 	N 	0.49685 0.84466 0.89419 -0.17000
C 	C 	0.45867 0.02036 0.14504 -0.10500
C 	C 	0.44750 0.09666 0.09101 0.09500
N 	N 	0.40829 0.13329 0.14107 -0.13500
C 	C 	0.38137 0.16828 1.04982 0.00500
C 	C 	0.34942 0.20159 0.14621 0.02900
N 	N 	0.35653 0.18888 0.29746 -0.12100
C 	C 	0.39270 0.14703 0.28992 0.08200
C 	C 	0.47560 0.13871 0.99096 -0.06700
H 	H 	0.55618 0.00359 -0.03379 0.05300
H 	H 	0.54453 0.90116 0.15734 0.05300
H 	H 	0.49893 0.90050 0.28442 0.05800
H 	H 	0.51656 0.77844 0.08100 0.04500
H 	H 	0.47289 0.88435 0.86932 0.09800
H 	H 	0.49193 0.78958 0.83309 0.09700
H 	H 	0.43719 -0.01179 0.22389 0.06200
H 	H 	0.38483 0.16986 0.92301 0.03400
H 	H 	0.32284 0.23433 1.10876 0.03000
H 	H 	0.40775 0.12794 0.39240 0.01500
H 	H 	0.46699 0.19840 0.95290 0.06200
C 	C 	0.02481 0.38382 0.43259 -0.08800
C 	C 	0.01521 0.45487 0.52392 -0.03100
C 	C 	0.01887 0.53216 0.45894 0.05200
C 	C 	0.00469 0.60683 0.55719 -0.09800
C 	C 	0.95697 0.62304 0.55990 -0.03800
N 	N 	0.93307 0.54783 0.54009 -0.16500
C 	C 	0.03356 0.53848 0.30152 -0.10600
C 	C 	0.04370 0.46794 0.20816 0.08300
N 	N 	0.05909 0.47384 0.04643 -0.14700
C 	C 	0.08295 0.41903 -0.03906 0.03700
C 	C 	0.09142 0.44931 -0.18591 0.00700
N 	N 	0.07313 0.52273 -0.19386 -0.11700
C 	C 	0.05342 0.53557 -0.05077 0.08900
C 	C 	0.03823 0.39096 0.27431 -0.07800
H 	H 	0.00357 0.45035 0.64537 0.05900
H 	H 	0.01448 0.59933 0.67794 0.07000
H 	H 	0.02145 0.66184 0.51386 0.04900
H 	H 	0.95109 0.66359 0.46149 0.03300
H 	H 	0.93960 0.52399 0.42609 0.08200
H 	H 	0.90161 0.56383 0.54354 0.07700
H 	H 	0.03651 0.59825 0.25235 0.05400
H 	H 	0.09406 0.36167 0.00192 -0.02800
H 	H 	0.10967 0.41955 0.71827 0.03500
H 	H 	0.03496 0.58954 -0.01938 0.02000
H 	H 	0.04250 0.33669 0.20017 -0.07700
