data_crystal

_cell_length_a 39.59950
_cell_length_b 25.75970
_cell_length_c 27.73140
_cell_angle_alpha 90.15800
_cell_angle_beta  87.83310
_cell_angle_gamma 85.59420

_symmetry_space_group_name_	'P 1'
_symmetry_space_group_name_H-M	'P 1'

loop_
_symmetry_equiv_pos_as_xyz
  x,y,z

loop_
_atom_site_label
_atom_site_type_symbol
_atom_site_fract_x
_atom_site_fract_y
_atom_site_fract_z
_atom_site_charge
Eu	Eu	0.12072 0.62834 0.11164 1.93100
O 	O 	0.07131 0.71784 0.09062 -0.28300
C 	C 	0.06374 0.57338 0.07017 0.34900
O 	O 	0.18270 0.63225 0.05054 -0.29700
O 	O 	0.16108 0.68662 0.10933 -0.40800
O 	O 	0.16026 0.52589 0.12103 -0.28400
O 	O 	0.07244 0.60429 0.03984 -0.29700
O 	O 	0.08036 0.57012 0.11336 -0.41000
O 	O 	0.08696 0.68195 0.16148 -0.41200
C 	C 	0.06709 0.71707 0.13443 0.33500
O 	O 	0.14545 0.58921 0.17616 -0.41000
C 	C 	0.16307 0.54257 0.16183 0.33500
C 	C 	0.18520 0.67233 0.07310 0.35200
Eu	Eu	0.37726 0.88838 0.88382 1.91900
O 	O 	0.42146 0.90438 0.79633 -0.27500
C 	C 	0.43717 0.92266 0.93638 0.34700
O 	O 	0.31464 0.95779 0.86886 -0.28300
O 	O 	0.34008 0.89282 0.82293 -0.40800
O 	O 	0.31894 0.88717 0.95544 -0.27900
O 	O 	0.43385 0.95032 0.90106 -0.29600
O 	O 	0.41490 0.88419 0.94415 -0.40600
O 	O 	0.41257 0.83163 0.83896 -0.41100
C 	C 	0.42823 0.85773 0.80140 0.33700
O 	O 	0.35015 0.82142 0.91677 -0.41000
C 	C 	0.32252 0.84076 0.94576 0.33100
C 	C 	0.31468 0.93231 0.83180 0.35200
Eu	Eu	0.12510 0.12428 0.59982 1.91800
O 	O 	0.06033 0.18823 0.58417 -0.26500
C 	C 	0.07049 0.06565 0.55576 0.35800
O 	O 	0.17803 0.13843 0.52406 -0.30400
O 	O 	0.16811 0.17806 0.59654 -0.42700
O 	O 	0.18831 0.05367 0.61120 -0.29500
O 	O 	0.08515 0.08637 0.52245 -0.29300
O 	O 	0.08209 0.07044 0.60211 -0.40000
O 	O 	0.09346 0.18219 0.64852 -0.39500
C 	C 	0.06424 0.20067 0.62587 0.35100
O 	O 	0.14797 0.08513 0.66585 -0.41000
C 	C 	0.17954 0.05999 0.65363 0.33100
C 	C 	0.18695 0.16945 0.55349 0.33100
Eu	Eu	0.87041 0.89697 0.38637 1.91200
O 	O 	0.90770 0.89973 0.28972 -0.26500
C 	C 	0.93698 0.91284 0.43221 0.33800
O 	O 	0.79899 0.93982 0.38535 -0.27600
O 	O 	0.83350 0.90526 0.32543 -0.39700
O 	O 	0.83086 0.88703 0.48222 -0.26300
O 	O 	0.93870 0.93280 0.39240 -0.29800
O 	O 	0.90775 0.88952 0.44680 -0.41900
O 	O 	0.90319 0.83504 0.34365 -0.38700
C 	C 	0.91632 0.85517 0.30111 0.36200
O 	O 	0.84058 0.83245 0.41846 -0.38800
C 	C 	0.82475 0.84660 0.46264 0.36200
C 	C 	0.80273 0.92917 0.34256 0.35600
Eu	Eu	0.87557 0.38849 0.88507 1.89300
O 	O 	0.93648 0.39701 0.81813 -0.29500
C 	C 	0.93614 0.42036 0.93734 0.32600
O 	O 	0.81206 0.45668 0.88482 -0.31600
O 	O 	0.83560 0.40022 0.82850 -0.43400
O 	O 	0.84288 0.37500 0.98435 -0.29300
O 	O 	0.92860 0.45549 0.90936 -0.30300
O 	O 	0.91591 0.37862 0.94139 -0.42500
O 	O 	0.90595 0.32867 0.83683 -0.41500
C 	C 	0.93331 0.35048 0.81387 0.32800
O 	O 	0.84704 0.32305 0.91809 -0.41400
C 	C 	0.83536 0.33503 0.96508 0.33500
C 	C 	0.81105 0.43889 0.84411 0.33100
Eu	Eu	0.62538 0.11528 0.10311 1.89600
O 	O 	0.58916 0.22239 0.10807 -0.28300
C 	C 	0.55623 0.07763 0.08549 0.32500
O 	O 	0.68195 0.13228 0.03431 -0.29200
O 	O 	0.66397 0.17645 0.10171 -0.40200
O 	O 	0.67795 0.02375 0.09533 -0.29100
O 	O 	0.55261 0.12496 0.08267 -0.30600
O 	O 	0.58651 0.05438 0.10217 -0.43200
O 	O 	0.59508 0.15897 0.16406 -0.40700
C 	C 	0.58148 0.20717 0.14837 0.34100
O 	O 	0.65564 0.07038 0.15968 -0.40900
C 	C 	0.67945 0.03417 0.13812 0.33400
C 	C 	0.68443 0.17017 0.05994 0.34800
Eu	Eu	0.62582 0.60956 0.60623 1.92200
O 	O 	0.58600 0.71180 0.61907 -0.26700
C 	C 	0.55851 0.57198 0.57658 0.35200
O 	O 	0.66165 0.67276 0.53613 -0.31000
O 	O 	0.66321 0.67094 0.61735 -0.41300
O 	O 	0.69583 0.55815 0.59843 -0.28800
O 	O 	0.55512 0.61927 0.57411 -0.26900
O 	O 	0.58825 0.54844 0.59438 -0.40300
O 	O 	0.59289 0.64353 0.66933 -0.38600
C 	C 	0.57871 0.69277 0.65790 0.35900
O 	O 	0.65526 0.55563 0.65733 -0.39000
C 	C 	0.68814 0.54387 0.63893 0.35600
C 	C 	0.67406 0.68861 0.57249 0.34000
Eu	Eu	0.37550 0.39204 0.37984 1.92300
O 	O 	0.41823 0.38791 0.29019 -0.27100
C 	C 	0.44011 0.40304 0.43308 0.33700
O 	O 	0.31065 0.45414 0.36675 -0.28100
O 	O 	0.34218 0.40165 0.31482 -0.39300
O 	O 	0.32900 0.40162 0.46706 -0.27200
O 	O 	0.44636 0.41673 0.39181 -0.29000
O 	O 	0.40901 0.38359 0.44468 -0.42000
O 	O 	0.40671 0.32454 0.34260 -0.38600
C 	C 	0.42389 0.34274 0.30224 0.35900
O 	O 	0.33965 0.33612 0.41329 -0.38800
C 	C 	0.32153 0.35950 0.45251 0.35700
C 	C 	0.31488 0.43743 0.32566 0.35400
C 	C 	0.96735 0.42208 0.96610 -0.18200
C 	C 	0.95862 0.43954 0.01852 -0.01100
C 	C 	0.98475 0.47473 0.03602 -0.01600
C 	C 	0.01451 0.45346 0.05744 0.10300
Cl	Cl	0.02090 0.38565 0.06739 -0.23100
C 	C 	0.03999 0.48582 0.06966 0.16800
Cl	Cl	0.07790 0.45757 0.09355 -0.22800
C 	C 	0.03601 0.53978 0.06062 -0.12900
C 	C 	0.00589 0.56127 0.04050 0.16900
Cl	Cl	-0.00100 0.62939 0.03243 -0.22200
C 	C 	0.98064 0.52892 0.02765 0.09800
Cl	Cl	0.94428 0.55685 0.99939 -0.22700
H 	H 	0.98427 0.44920 0.94788 0.12100
H 	H 	0.98134 0.38297 0.96560 0.11600
H 	H 	0.93287 0.45986 1.02210 0.08200
H 	H 	0.95700 0.40481 0.04186 0.08300
C 	C 	0.52824 0.04621 0.06932 -0.19200
C 	C 	0.53777 0.98727 0.06642 -0.00100
C 	C 	0.51351 0.96218 0.03386 -0.02400
C 	C 	0.48140 0.94957 0.05216 0.10500
Cl	Cl	0.47074 0.95591 0.11457 -0.23300
C 	C 	0.45691 0.93400 0.02066 0.16200
Cl	Cl	0.41622 0.92189 0.04447 -0.23700
C 	C 	0.46424 0.93127 0.97045 -0.12100
C 	C 	0.49694 0.94093 0.95249 0.16500
Cl	Cl	0.50788 0.93298 0.89023 -0.22300
C 	C 	0.52135 0.95675 0.98383 0.10800
Cl	Cl	0.56112 0.97253 0.95911 -0.23800
H 	H 	0.52125 0.06056 0.03295 0.11400
H 	H 	0.50574 0.05410 0.09413 0.12200
H 	H 	0.56432 0.97937 0.05270 0.08000
H 	H 	0.53718 0.97014 0.10310 0.08400
C 	C 	0.95922 0.31663 0.78500 -0.19200
C 	C 	0.96091 0.33335 0.73201 -0.00300
C 	C 	0.98768 0.29919 0.70367 -0.01800
C 	C 	0.02193 0.31126 0.70259 0.10400
Cl	Cl	0.03410 0.36668 0.73348 -0.23100
C 	C 	0.04688 0.27914 0.67710 0.16800
Cl	Cl	0.08936 0.29616 0.67496 -0.23000
C 	C 	0.03793 0.23468 0.65231 -0.12300
C 	C 	1.00382 0.22236 0.65350 0.16800
Cl	Cl	0.99228 0.16522 0.62476 -0.21500
C 	C 	0.97885 0.25424 0.67920 0.10400
Cl	Cl	0.93657 0.23628 0.68162 -0.23000
H 	H 	0.95263 0.27550 0.78721 0.12200
H 	H 	0.98431 0.31912 0.80111 0.11900
H 	H 	0.93560 0.33178 0.71644 0.08100
H 	H 	0.96646 0.37488 0.72935 0.08700
C 	C 	0.70089 0.72651 0.56852 -0.19000
C 	C 	0.73332 0.70086 0.54385 -0.00700
C 	C 	0.75602 0.74134 0.52439 -0.01100
C 	C 	0.75111 0.76197 0.47781 0.10100
Cl	Cl	0.71689 0.74440 0.44351 -0.22400
C 	C 	0.77329 0.79700 0.45817 0.17200
Cl	Cl	0.76629 0.82264 0.39996 -0.22000
C 	C 	0.80030 0.81254 0.48505 -0.12600
C 	C 	0.80439 0.79391 0.53239 0.17200
Cl	Cl	0.83816 0.81300 0.56670 -0.21400
C 	C 	0.78236 0.75843 0.55202 0.10300
Cl	Cl	0.78801 0.73576 0.61156 -0.20900
H 	H 	0.70674 0.74019 0.60510 0.13200
H 	H 	0.69088 0.76084 0.54779 0.12900
H 	H 	0.74668 0.67450 0.56965 0.09900
H 	H 	0.72722 0.67477 0.51395 0.08800
C 	C 	0.18578 0.51350 0.19626 -0.19100
C 	C 	0.22263 0.50959 0.17668 -0.00500
C 	C 	0.24657 0.49052 0.21541 -0.01200
C 	C 	0.25893 0.52641 0.24772 0.10400
Cl	Cl	0.24622 0.59369 0.24409 -0.22800
C 	C 	0.28135 0.50912 0.28343 0.16900
Cl	Cl	0.29803 0.55568 0.32115 -0.22800
C 	C 	0.29143 0.45559 0.28774 -0.12100
C 	C 	0.27892 0.41964 0.25569 0.17300
Cl	Cl	0.29019 0.35215 0.26103 -0.19100
C 	C 	0.25647 0.43693 0.21994 0.10500
Cl	Cl	0.24012 0.39055 0.18174 -0.21300
H 	H 	0.17712 0.47389 0.20198 0.12900
H 	H 	0.18381 0.53430 0.23156 0.12800
H 	H 	0.22518 0.48361 0.14454 0.09600
H 	H 	0.22957 0.54796 0.16290 0.08900
C 	C 	0.78369 0.45974 0.81162 -0.19300
C 	C 	0.78690 0.43495 0.76112 -0.00100
C 	C 	0.76152 0.46215 0.72809 -0.01700
C 	C 	0.72889 0.44418 0.72399 0.10300
Cl	Cl	0.71701 0.38923 0.75686 -0.21900
C 	C 	0.70522 0.47031 0.69419 0.16900
Cl	Cl	0.66527 0.44514 0.68764 -0.21000
C 	C 	0.71359 0.51511 0.66864 -0.12700
C 	C 	0.74618 0.53312 0.67270 0.17000
Cl	Cl	0.75705 0.59048 0.64283 -0.23200
C 	C 	0.76994 0.50686 0.70222 0.10200
Cl	Cl	0.81018 0.53152 0.70750 -0.23700
H 	H 	0.78517 0.50253 0.80854 0.12000
H 	H 	0.75863 0.45254 0.82864 0.12400
H 	H 	0.81306 0.43688 0.74574 0.08200
H 	H 	0.78331 0.39274 0.76383 0.08800
C 	C 	0.29660 0.80503 0.96342 -0.18400
C 	C 	0.29470 0.80213 0.01865 -0.01500
C 	C 	0.26657 0.76866 0.03524 -0.00900
C 	C 	0.23317 0.79125 0.04364 0.10000
Cl	Cl	0.22371 0.85897 0.03611 -0.21600
C 	C 	0.20677 0.75992 0.05680 0.17100
Cl	Cl	0.16497 0.78919 0.06449 -0.23200
C 	C 	0.21333 0.70556 0.06147 -0.12800
C 	C 	0.24673 0.68300 0.05350 0.17300
Cl	Cl	0.25616 0.61535 0.06166 -0.23000
C 	C 	0.27311 0.71427 0.04018 0.09700
Cl	Cl	0.31439 0.68434 1.02872 -0.22000
H 	H 	0.30320 0.76544 0.94818 0.12500
H 	H 	0.27153 0.81939 0.94989 0.12800
H 	H 	0.31954 0.78651 1.03195 0.09200
H 	H 	0.29058 0.84184 0.03450 0.09500
C 	C 	0.20322 0.04282 0.69246 -0.19000
C 	C 	0.21026 0.98348 0.69317 -0.00500
C 	C 	0.23734 0.96813 0.72896 -0.01500
C 	C 	0.27194 0.96328 0.71385 0.10200
Cl	Cl	0.28440 0.97508 0.65313 -0.23000
C 	C 	0.29711 0.95055 0.74728 0.16900
Cl	Cl	0.34026 0.94609 0.72749 -0.23300
C 	C 	0.28805 0.94362 0.79638 -0.12800
C 	C 	0.25356 0.94857 0.81161 0.16800
Cl	Cl	0.24147 0.93781 0.87268 -0.21900
C 	C 	0.22833 0.96074 0.77814 0.10200
Cl	Cl	0.18535 0.96747 0.79868 -0.22500
H 	H 	0.19199 0.05639 0.72803 0.12700
H 	H 	0.22731 0.06168 0.68624 0.11900
H 	H 	0.18647 0.96492 0.70231 0.08600
H 	H 	0.21809 0.96871 0.65649 0.08900
C 	C 	0.04065 0.75368 0.15921 -0.19200
C 	C 	0.01225 0.72341 0.18176 0.00000
C 	C 	0.98762 0.75893 0.21233 -0.01800
C 	C 	-0.00659 0.76679 0.26171 0.10500
Cl	Cl	0.03044 0.73833 0.28790 -0.23100
C 	C 	0.97003 0.79811 0.29059 0.16900
Cl	Cl	-0.02174 0.80819 0.35209 -0.23900
C 	C 	0.94092 0.82274 0.27034 -0.12600
C 	C 	0.93550 0.81618 0.22080 0.17000
Cl	Cl	0.89875 0.84604 0.19494 -0.20600
C 	C 	0.95874 0.78451 0.19190 0.10300
Cl	Cl	0.95143 0.77758 0.12975 -0.21700
H 	H 	0.02976 0.78217 0.13285 0.13200
H 	H 	0.05290 0.77556 0.18745 0.12700
H 	H 	0.99899 0.70420 0.15285 0.08500
H 	H 	0.02308 0.69083 0.20393 0.08400
C 	C 	0.21808 0.19782 0.54327 -0.19200
C 	C 	0.20945 0.25682 0.54263 -0.00200
C 	C 	0.23856 0.28414 0.51962 -0.01600
C 	C 	0.26375 0.30324 0.54818 0.10400
Cl	Cl	0.26241 0.29476 0.61152 -0.22500
C 	C 	0.29079 0.32809 0.52636 0.17000
Cl	Cl	0.32264 0.35006 0.56277 -0.21500
C 	C 	0.29307 0.33377 0.47578 -0.12400
C 	C 	0.26806 0.31449 0.44725 0.16900
Cl	Cl	0.26922 0.32382 0.38406 -0.21400
C 	C 	0.24115 0.28941 0.46893 0.10300
Cl	Cl	0.21090 0.26395 0.43177 -0.22800
H 	H 	0.22990 0.18448 0.50790 0.12800
H 	H 	0.23663 0.18799 0.57153 0.12100
H 	H 	0.18596 0.26633 0.52275 0.07900
H 	H 	0.20320 0.27108 0.57994 0.08900
C 	C 	0.55697 0.23969 0.18063 -0.19400
C 	C 	0.52560 0.21026 0.19305 -0.00100
C 	C 	0.49904 0.24464 0.22148 -0.01700
C 	C 	0.49972 0.24737 0.27234 0.10300
Cl	Cl	0.53229 0.21250 0.30360 -0.22900
C 	C 	0.47487 0.27878 0.29872 0.17100
Cl	Cl	0.47721 0.28312 0.36220 -0.23500
C 	C 	0.44921 0.30816 0.27459 -0.12400
C 	C 	0.44861 0.30580 0.22381 0.17000
Cl	Cl	0.41581 0.34057 0.19285 -0.20500
C 	C 	0.47353 0.27463 0.19737 0.10300
Cl	Cl	0.47285 0.27452 0.13358 -0.22700
H 	H 	0.54920 0.27681 0.16230 0.12800
H 	H 	0.56977 0.24919 0.21414 0.12700
H 	H 	0.51501 0.19586 0.15946 0.08200
H 	H 	0.53296 0.17447 0.21360 0.08400
C 	C 	0.45318 0.82857 0.76726 -0.19000
C 	C 	0.48376 0.80497 0.79409 -0.00700
C 	C 	0.50889 0.77569 0.75921 -0.01200
C 	C 	0.50487 0.72320 0.74724 0.10200
Cl	Cl	0.47079 0.69070 0.77294 -0.22500
C 	C 	0.52767 0.69627 0.71414 0.17000
Cl	Cl	0.52098 0.63137 0.69810 -0.21100
C 	C 	0.55470 0.72146 0.69245 -0.12400
C 	C 	0.55859 0.77402 0.70392 0.17100
Cl	Cl	0.59277 0.80619 0.67804 -0.21700
C 	C 	0.53583 0.80099 0.73709 0.10100
Cl	Cl	0.54120 0.86710 0.75012 -0.20900
H 	H 	0.46195 0.85527 0.73876 0.13100
H 	H 	0.44027 0.79731 0.74947 0.12700
H 	H 	0.49575 0.83617 0.81331 0.09300
H 	H 	0.47534 0.77864 0.82304 0.08900
C 	C 	0.46555 0.40838 0.47117 -0.19000
C 	C 	0.45184 0.44801 0.51017 0.00000
C 	C 	0.47973 0.47975 0.52795 -0.01700
C 	C 	0.49587 0.46735 0.57148 0.10600
Cl	Cl	0.48486 0.41308 0.60602 -0.21300
C 	C 	0.52139 0.49766 0.58757 0.17000
Cl	Cl	0.53954 0.48326 0.64378 -0.19300
C 	C 	0.53150 0.54015 0.55995 -0.12100
C 	C 	0.51579 0.55193 0.51601 0.16600
Cl	Cl	0.52928 0.60275 0.47881 -0.22900
C 	C 	0.49001 0.52214 0.50027 0.10400
Cl	Cl	0.47086 0.53810 0.44498 -0.24100
H 	H 	0.48944 0.42048 0.45372 0.12900
H 	H 	0.47155 0.36980 0.48790 0.12800
H 	H 	0.43122 0.47510 0.49642 0.07200
H 	H 	0.43933 0.42704 0.53990 0.09000
C 	C 	0.96623 0.91367 0.46496 -0.19000
C 	C 	0.95656 0.94603 0.51087 -0.00000
C 	C 	0.98538 0.97799 0.52478 -0.01700
C 	C 	0.01112 0.95662 0.55439 0.10700
Cl	Cl	0.00996 0.89244 0.57659 -0.22000
C 	C 	0.03856 0.98565 0.56538 0.17000
Cl	Cl	0.07124 0.95699 0.60066 -0.23000
C 	C 	0.04070 0.03620 0.54666 -0.12200
C 	C 	0.01478 0.05783 0.51757 0.17500
Cl	Cl	1.01560 0.12250 0.49630 -0.20400
C 	C 	0.98755 0.02870 0.50617 0.10600
Cl	Cl	0.95674 0.05588 0.46693 -0.23500
H 	H 	0.98786 0.92970 0.44471 0.12700
H 	H 	0.97452 0.87307 0.47492 0.13100
H 	H 	0.93320 0.97197 0.50622 0.07700
H 	H 	0.94944 0.91985 0.54066 0.08900
C 	C 	0.70758 0.00973 0.16717 -0.19200
C 	C 	0.69374 -0.01915 0.21104 -0.00100
C 	C 	0.72182 0.96681 0.24557 -0.01500
C 	C 	0.74072 0.91804 0.24224 0.10600
Cl	Cl	0.73214 0.87208 0.19764 -0.22300
C 	C 	0.76705 0.90569 0.27395 0.17300
Cl	Cl	0.78929 0.84344 0.26995 -0.19400
C 	C 	0.77493 0.94202 0.30924 -0.11900
C 	C 	0.75633 0.99104 0.31215 0.16900
Cl	Cl	0.76698 1.03891 0.35372 -0.22500
C 	C 	0.72999 1.00333 0.28056 0.10300
Cl	Cl	0.70782 0.06568 0.28448 -0.22200
H 	H 	0.72298 0.04131 0.17912 0.12600
H 	H 	0.72430 0.98215 0.14435 0.12600
H 	H 	0.67287 0.00494 0.23007 0.08800
H 	H 	0.68178 0.94581 0.19876 0.08200
C 	C 	0.81371 0.29841 0.99169 -0.19300
C 	C 	0.77890 0.32520 1.00651 0.00700
C 	C 	0.75414 0.28513 0.02057 -0.02200
C 	C 	0.73319 0.26556 -0.01428 0.10100
Cl	Cl	0.73568 0.28672 0.92508 -0.22800
C 	C 	0.71039 0.22823 -0.00139 0.16700
Cl	Cl	0.68326 0.20668 -0.04535 -0.23000
C 	C 	0.70857 0.20933 0.04632 -0.12700
C 	C 	0.72995 0.22801 0.08090 0.16700
Cl	Cl	0.72997 0.20219 0.13999 -0.22700
C 	C 	0.75259 0.26567 0.06814 0.10400
Cl	Cl	0.77957 0.28740 0.11215 -0.23400
H 	H 	0.82688 0.28377 0.02421 0.12000
H 	H 	0.81045 0.26453 0.96782 0.12400
H 	H 	0.78152 0.35281 0.03671 0.08100
H 	H 	0.76905 0.35003 0.97670 0.07600
