data_crystal

_cell_length_a 38.14080
_cell_length_b 21.74640
_cell_length_c 13.86370
_cell_angle_alpha 94.78170
_cell_angle_beta  89.85410
_cell_angle_gamma 91.83260

_symmetry_space_group_name_	'P 1'
_symmetry_space_group_name_H-M	'P 1'

loop_
_symmetry_equiv_pos_as_xyz
  x,y,z

loop_
_atom_site_label
_atom_site_type_symbol
_atom_site_fract_x
_atom_site_fract_y
_atom_site_fract_z
_atom_site_charge
Eu	Eu	0.39219 0.73968 0.24900 1.75900
O 	O 	0.33729 0.83384 0.21355 -0.30300
C 	C 	0.31949 0.67636 0.25742 0.27800
O 	O 	0.43046 0.82445 0.11256 -0.30700
O 	O 	0.44886 0.74696 0.19661 -0.42800
O 	O 	0.43764 0.64718 0.33135 -0.33300
O 	O 	0.28776 0.66929 0.26508 -0.23500
O 	O 	0.33592 0.72915 0.30252 -0.41300
O 	O 	0.39125 0.84465 0.28041 -0.40100
C 	C 	0.36075 0.86868 0.24593 0.32300
O 	O 	0.41245 0.73221 0.40159 -0.43200
C 	C 	0.43542 0.68385 0.40262 0.32100
C 	C 	0.45491 0.79502 0.13799 0.32200
Eu	Eu	0.88901 0.78381 0.81082 1.79600
O 	O 	0.87931 0.92012 0.78114 -0.34000
C 	C 	0.86079 0.70509 0.96624 0.31300
O 	O 	0.96834 0.77326 0.81096 -0.32600
O 	O 	0.93187 0.82150 0.71537 -0.45000
O 	O 	0.92192 0.65807 0.78652 -0.29800
O 	O 	0.89252 0.69926 0.96640 -0.33300
O 	O 	0.84610 0.74489 0.90505 -0.45700
O 	O 	0.84899 0.83336 0.72633 -0.43900
C 	C 	0.86051 0.89406 0.71832 0.32100
O 	O 	0.88079 0.70159 0.70002 -0.41700
C 	C 	0.90158 0.65266 0.71874 0.31900
C 	C 	0.96498 0.80354 0.74147 0.32000
Eu	Eu	0.10323 0.26799 0.23247 1.77900
O 	O 	0.16261 0.18361 0.17737 -0.32600
C 	C 	0.16789 0.33778 0.31706 0.31700
O 	O 	0.07919 0.17405 0.05467 -0.31000
O 	O 	0.05491 0.25716 0.13430 -0.44400
O 	O 	0.01757 0.30810 0.42071 -0.24100
O 	O 	0.16287 0.36142 0.24190 -0.34900
O 	O 	0.14991 0.28322 0.33415 -0.42200
O 	O 	0.10796 0.16372 0.23258 -0.41900
C 	C 	0.13902 0.14543 0.18741 0.32500
O 	O 	0.06757 0.26631 0.36410 -0.41200
C 	C 	0.04232 0.31124 0.36525 0.28700
C 	C 	0.05327 0.20451 0.07024 0.33000
Eu	Eu	0.58692 0.24667 0.82271 1.76800
O 	O 	0.63624 0.14753 0.86069 -0.32300
C 	C 	0.64005 0.35196 0.78783 0.30600
O 	O 	0.50703 0.19849 0.96134 -0.26400
O 	O 	0.56102 0.17216 0.90814 -0.44100
O 	O 	0.52420 0.32370 0.82777 -0.33400
O 	O 	0.65868 0.32260 0.83702 -0.31800
O 	O 	0.61155 0.32278 0.73903 -0.42400
O 	O 	0.61105 0.17118 0.72235 -0.41300
C 	C 	0.62919 0.13158 0.77643 0.31800
O 	O 	0.54028 0.24627 0.72065 -0.42000
C 	C 	0.51826 0.29367 0.75117 0.32400
C 	C 	0.52464 0.17089 0.89921 0.29900
C 	C 	0.34117 0.62970 0.19915 -0.20300
C 	C 	0.32126 0.56970 0.16086 -0.00100
C 	C 	0.30289 0.53313 0.23825 -0.08700
C 	C 	0.32678 0.52140 0.32373 -0.05200
C 	C 	0.30829 0.48163 0.39629 -0.06900
C 	C 	0.28040 0.51736 0.45663 -0.05900
C 	C 	0.26189 0.47739 0.52888 -0.07100
C 	C 	0.23468 0.43158 0.48463 -0.01500
S 	S 	0.22178 0.42529 0.36496 0.02700
C 	C 	0.19222 0.36754 0.38988 -0.12100
C 	C 	0.19211 0.35524 0.48580 0.12100
C 	C 	0.21645 0.39110 0.53921 0.05200
O 	O 	0.22024 0.38879 0.63946 -0.18600
C 	C 	0.20334 0.33568 0.67649 0.01200
C 	C 	0.16688 0.32213 0.63059 0.01400
O 	O 	0.16918 0.31297 0.52701 -0.18500
H 	H 	0.35215 0.65214 0.13609 -0.01100
H 	H 	0.36388 0.61805 0.24340 0.00900
H 	H 	0.30127 0.58105 0.10737 0.03000
H 	H 	0.34027 0.53916 0.12122 0.01900
H 	H 	0.29353 0.48790 0.20253 0.04500
H 	H 	0.27923 0.55754 0.26433 0.06400
H 	H 	0.35029 0.49703 0.29508 0.03400
H 	H 	0.33583 0.56574 0.36269 0.03700
H 	H 	0.29656 0.43929 0.35725 0.04500
H 	H 	0.32848 0.46675 0.44642 0.03800
H 	H 	0.26047 0.53634 0.41014 0.04700
H 	H 	0.29368 0.55738 0.49823 0.04100
H 	H 	0.24852 0.50856 0.58390 0.05100
H 	H 	0.28176 0.45237 0.56757 0.05000
H 	H 	0.21989 0.29493 0.66061 0.04000
H 	H 	0.20067 0.34395 0.75624 0.03100
H 	H 	0.15481 0.28009 0.65877 0.03600
H 	H 	0.14968 0.36149 0.65082 0.03900
C 	C 	0.85198 0.92562 0.62946 -0.19900
C 	C 	0.82952 0.98242 0.65167 -0.01000
C 	C 	0.79138 0.96662 0.67929 -0.08200
C 	C 	0.77082 0.93110 0.59555 -0.05700
C 	C 	0.73092 0.93695 0.60566 -0.06900
C 	C 	0.71624 0.90926 0.69660 -0.05500
C 	C 	0.67599 0.90486 0.69643 -0.07200
C 	C 	0.66002 0.96728 0.69816 -0.01800
S 	S 	0.66276 0.02059 0.79669 0.02900
C 	C 	0.63921 0.07035 0.73385 -0.11800
C 	C 	0.62952 0.04573 0.64239 0.11900
C 	C 	0.64189 -0.01242 0.62168 0.05300
O 	O 	0.63569 0.95320 0.53283 -0.18800
C 	C 	0.62342 0.98907 0.45809 0.01200
C 	C 	0.59584 0.03498 0.49740 0.01400
O 	O 	0.60971 0.07556 0.57619 -0.18300
H 	H 	0.87710 0.94066 0.59661 0.07400
H 	H 	0.83889 0.89223 0.57511 0.07800
H 	H 	0.84187 1.01296 0.71131 0.03400
H 	H 	0.82944 1.00932 0.58688 0.02600
H 	H 	0.77847 0.01090 0.70015 0.04500
H 	H 	0.79100 0.93930 0.74361 0.04800
H 	H 	0.77866 0.94931 0.52580 0.03700
H 	H 	0.77734 0.88148 0.59120 0.04100
H 	H 	0.72428 0.98645 0.60691 0.04800
H 	H 	0.71841 0.91241 0.54035 0.04600
H 	H 	0.72549 0.93754 0.76261 0.04000
H 	H 	0.72615 0.86195 0.69980 0.03800
H 	H 	0.66681 0.88211 0.76114 0.04300
H 	H 	0.66692 0.87489 0.63186 0.05500
H 	H 	0.64598 1.01499 0.42822 0.03800
H 	H 	0.61184 0.95746 0.39876 0.03300
H 	H 	0.58729 0.06293 0.43877 0.03500
H 	H 	0.57255 0.00885 0.52286 0.03800
C 	C 	0.14198 0.08052 0.14287 -0.19800
C 	C 	0.16256 0.03903 0.20533 -0.00800
C 	C 	0.20145 0.05795 0.22186 -0.08000
C 	C 	0.22162 0.06896 0.12800 -0.05800
C 	C 	0.26135 0.06019 0.13568 -0.06800
C 	C 	0.27811 0.09467 0.22675 -0.05800
C 	C 	0.31846 0.09884 0.22264 -0.07200
C 	C 	0.33689 0.03941 0.23472 -0.01300
S 	S 	0.31648 0.96821 0.24273 0.03300
C 	C 	0.35680 0.93570 0.24690 -0.11600
C 	C 	0.38428 0.97826 0.24574 0.12400
C 	C 	0.37301 1.03684 0.23675 0.05200
O 	O 	0.39621 0.08769 0.23011 -0.18400
C 	C 	0.43167 0.07124 0.20758 0.01300
C 	C 	0.44296 1.01740 0.26482 0.01300
O 	O 	0.41995 0.96425 0.24581 -0.17900
H 	H 	0.11510 0.05987 0.13214 0.08500
H 	H 	0.15377 0.08125 0.06973 0.07800
H 	H 	0.14945 0.03747 0.27681 0.03300
H 	H 	0.16111 -0.00871 0.16977 0.02700
H 	H 	0.21367 1.02017 0.25801 0.04400
H 	H 	0.20344 0.10035 0.27244 0.05600
H 	H 	0.21154 0.03618 0.06779 0.03800
H 	H 	0.21704 0.11651 0.10814 0.05100
H 	H 	0.26570 0.01005 0.13450 0.04600
H 	H 	0.27396 0.07675 0.06984 0.04200
H 	H 	0.26979 0.07244 0.29277 0.04300
H 	H 	0.26852 0.14260 0.23380 0.04300
H 	H 	0.32754 0.13321 0.28188 0.05300
H 	H 	0.32690 0.11693 0.15331 0.05200
H 	H 	0.43378 0.05755 0.12877 0.04000
H 	H 	0.44941 0.11210 0.22503 0.03200
H 	H 	0.47014 1.00480 0.24458 0.03500
H 	H 	0.44254 1.03220 0.34354 0.04000
C 	C 	0.83810 0.67036 1.03309 -0.19700
C 	C 	0.83145 0.60277 0.99325 -0.01000
C 	C 	0.79945 0.59332 0.92560 -0.08300
C 	C 	0.76458 0.60437 0.98004 -0.05700
C 	C 	0.73299 0.56938 0.93058 -0.06900
C 	C 	0.72740 0.58567 0.82566 -0.05800
C 	C 	0.68848 0.58618 0.79720 -0.07200
C 	C 	0.66922 0.52422 0.78855 -0.01500
S 	S 	0.68731 0.45413 0.80479 0.02900
C 	C 	0.64697 0.41847 0.78172 -0.12100
C 	C 	0.62140 0.45895 0.76143 0.11800
C 	C 	0.63388 0.51894 0.76744 0.05200
O 	O 	0.61237 0.56877 0.75446 -0.18600
C 	C 	0.57554 0.55400 0.76199 0.01100
C 	C 	0.56612 0.49097 0.70768 0.01700
O 	O 	0.58589 0.44277 0.74416 -0.19300
H 	H 	0.85173 0.67103 1.10398 0.07400
H 	H 	0.81317 0.69448 1.04708 0.07500
H 	H 	0.85504 0.58531 0.95371 0.03800
H 	H 	0.82753 0.57380 1.05500 0.02800
H 	H 	0.79949 0.54502 0.89216 0.04500
H 	H 	0.80205 0.62453 0.86619 0.05200
H 	H 	0.76649 0.58907 1.05434 0.03700
H 	H 	0.75936 0.65453 0.98712 0.03800
H 	H 	0.73679 0.51899 0.93139 0.04400
H 	H 	0.70941 0.58057 0.97530 0.04200
H 	H 	0.74168 0.55321 0.77450 0.04200
H 	H 	0.73854 0.63282 0.81723 0.03900
H 	H 	0.68685 0.60588 0.72598 0.05000
H 	H 	0.67456 0.61779 0.85050 0.05100
H 	H 	0.56836 0.55271 0.83961 0.03700
H 	H 	0.56042 0.59068 0.73164 0.03100
H 	H 	0.53766 0.48005 0.71585 0.03200
H 	H 	0.57184 0.49320 0.62934 0.03900
C 	C 	0.45789 0.67935 0.49070 -0.19700
C 	C 	0.48238 0.62420 0.48362 -0.00700
C 	C 	0.46345 0.56133 0.49231 -0.08300
C 	C 	0.44466 0.55763 0.59024 -0.05700
C 	C 	0.44082 0.49154 0.62051 -0.07000
C 	C 	0.41801 0.44864 0.55056 -0.05600
C 	C 	0.40718 0.38796 0.59375 -0.07100
C 	C 	0.43829 0.35177 0.61928 -0.01500
S 	S 	0.45906 0.36361 0.72938 0.03000
C 	C 	0.48831 0.30823 0.69141 -0.11900
C 	C 	0.48163 0.28184 0.59895 0.12100
C 	C 	0.45280 0.30590 0.55868 0.05300
O 	O 	0.44081 0.28656 0.46512 -0.18400
C 	C 	0.45475 0.22902 0.42667 0.01100
C 	C 	0.49429 0.22659 0.44792 0.01500
O 	O 	0.50124 0.23539 0.55005 -0.18300
H 	H 	0.47444 0.72238 0.50047 0.07800
H 	H 	0.44085 0.67842 0.55557 0.07600
H 	H 	0.49699 0.62287 0.41403 0.03900
H 	H 	0.50234 0.63165 0.54211 0.02600
H 	H 	0.48360 0.52544 0.48351 0.04500
H 	H 	0.44422 0.55156 0.43252 0.05400
H 	H 	0.45988 0.58513 0.64802 0.03500
H 	H 	0.41830 0.57777 0.58706 0.03600
H 	H 	0.46740 0.47256 0.62563 0.04500
H 	H 	0.42888 0.49382 0.69394 0.04000
H 	H 	0.43244 0.43807 0.48168 0.04500
H 	H 	0.39370 0.47244 0.53336 0.03400
H 	H 	0.39041 0.35957 0.54058 0.05300
H 	H 	0.39092 0.39802 0.65949 0.04300
H 	H 	0.44070 0.19041 0.45968 0.04200
H 	H 	0.45019 0.22330 0.34732 0.03700
H 	H 	0.50421 0.18122 0.41919 0.03400
H 	H 	0.50851 0.26327 0.41071 0.04000
C 	C 	0.99636 0.82161 0.68334 -0.19800
C 	C 	1.02249 0.86476 0.74259 -0.01300
C 	C 	1.00642 0.92333 0.79230 -0.07500
C 	C 	0.98637 0.96067 0.72195 -0.06200
C 	C 	0.97852 0.02615 0.76505 -0.06600
C 	C 	0.95494 0.02625 0.85544 -0.06000
C 	C 	0.94257 0.09109 0.88927 -0.07500
C 	C 	0.97004 0.13324 0.94061 -0.00300
S 	S 	0.01234 0.11336 -0.03523 0.02100
C 	C 	0.01988 0.18554 0.02225 -0.12500
C 	C 	-0.00911 0.22198 0.02378 0.12800
C 	C 	0.96290 0.19271 -0.02417 0.03900
O 	O 	0.93037 0.22032 0.96820 -0.17600
C 	C 	0.93141 0.28593 -0.00790 0.00100
C 	C 	-0.04548 0.30394 0.08167 0.01800
O 	O 	-0.01049 0.28251 0.06716 -0.19400
H 	H 	1.00986 0.77914 0.65590 0.07800
H 	H 	0.98768 0.84436 0.61901 0.07900
H 	H 	1.03452 0.83870 0.79899 0.03600
H 	H 	0.04403 0.87856 0.69394 0.02800
H 	H 	0.02814 0.95265 0.82663 0.04200
H 	H 	0.98860 0.90994 0.85100 0.03700
H 	H 	0.00231 0.96469 0.65539 0.03900
H 	H 	0.96123 0.93613 0.70049 0.04900
H 	H 	0.00363 0.05187 0.78201 0.04600
H 	H 	0.96503 0.05003 0.70846 0.04300
H 	H 	0.96853 0.00631 0.91581 0.03800
H 	H 	0.93128 -0.00349 0.83740 0.04500
H 	H 	0.92028 0.08591 0.94013 0.05200
H 	H 	0.93237 0.11355 0.82637 0.05400
H 	H 	0.94195 0.30945 0.92950 0.04400
H 	H 	0.90429 0.30142 0.00632 0.03300
H 	H 	-0.04437 0.35493 0.09677 0.02800
H 	H 	0.94274 0.28348 0.14560 0.03700
C 	C 	0.50714 0.13485 0.81448 -0.19500
C 	C 	0.48432 0.08039 0.84536 -0.01000
C 	C 	0.50455 0.03328 0.89849 -0.08100
C 	C 	0.53440 0.00404 0.83717 -0.05600
C 	C 	0.54703 0.94450 0.87608 -0.06800
C 	C 	0.56469 0.95595 0.97602 -0.05600
C 	C 	0.57524 0.89549 1.01633 -0.06200
C 	C 	0.54506 0.85737 0.05344 -0.02200
S 	S 	0.50201 0.87933 0.06099 0.03100
C 	C 	0.49089 0.81080 0.10809 -0.11900
C 	C 	0.51922 0.77403 0.11863 0.12000
C 	C 	0.54979 0.80015 0.08641 0.05400
O 	O 	0.58216 0.77158 0.08988 -0.18800
C 	C 	0.57931 0.70694 0.10398 0.01200
C 	C 	0.55121 0.69362 0.18023 0.01400
O 	O 	0.51765 0.71553 0.15445 -0.18700
H 	H 	0.49016 0.16608 0.77733 0.08300
H 	H 	0.52720 0.11794 0.76134 0.07400
H 	H 	0.46295 0.09856 0.89338 0.03900
H 	H 	0.47163 0.05642 0.77996 0.03100
H 	H 	0.48544 -0.00346 0.91760 0.04800
H 	H 	0.51525 0.05620 0.96722 0.05600
H 	H 	0.52487 -0.00777 0.76196 0.04100
H 	H 	0.55692 0.03757 0.83410 0.04800
H 	H 	0.52451 0.91103 0.87844 0.04600
H 	H 	0.56636 0.92362 0.82388 0.04300
H 	H 	0.54749 0.98139 0.02917 0.04000
H 	H 	0.58878 0.98529 0.96831 0.04300
H 	H 	0.59381 0.90700 0.07727 0.04600
H 	H 	0.58946 0.86708 0.95946 0.05100
H 	H 	0.57239 0.68065 0.03408 0.03600
H 	H 	0.60514 0.69146 0.12764 0.03000
H 	H 	0.54882 0.64314 0.18697 0.03200
H 	H 	0.55937 0.71658 0.25165 0.03900
C 	C 	0.04452 0.36111 0.29585 -0.17000
C 	C 	0.04558 0.42712 0.34581 -0.01600
C 	C 	0.01350 0.44417 0.40897 -0.07900
C 	C 	-0.02165 0.43121 0.35569 -0.05700
C 	C 	0.94690 0.45220 0.41765 -0.06600
C 	C 	0.94227 0.41626 0.50840 -0.05700
C 	C 	0.90577 0.42375 0.55353 -0.07100
C 	C 	0.89917 0.49012 0.58441 -0.01700
S 	S 	0.91769 0.52788 0.68642 0.03400
C 	C 	0.89845 0.59433 0.65748 -0.12000
C 	C 	0.87912 0.58680 0.57311 0.12100
C 	C 	0.87987 0.52770 0.53100 0.05200
O 	O 	0.86307 0.50902 0.44306 -0.18800
C 	C 	0.85331 0.55921 0.38867 0.01200
C 	C 	0.83808 0.61234 0.45479 0.01400
O 	O 	0.86213 0.63401 0.53051 -0.18600
H 	H 	0.06896 0.35607 0.25293 -0.05700
H 	H 	0.02244 0.35489 0.24348 0.07300
H 	H 	0.06957 0.43371 0.39142 0.02200
H 	H 	0.04803 0.46006 0.28880 0.02400
H 	H 	0.01592 0.49424 0.43269 0.04300
H 	H 	0.01422 0.41919 0.47537 0.05900
H 	H 	-0.02139 0.45607 0.28877 0.03700
H 	H 	-0.02553 0.38119 0.33391 0.05000
H 	H 	0.94999 0.50244 0.43940 0.04800
H 	H 	0.92302 0.44499 0.37172 0.05000
H 	H 	0.96242 0.43253 0.56336 0.04500
H 	H 	0.94597 0.36625 0.48901 0.05000
H 	H 	0.90361 0.39647 0.61771 0.04500
H 	H 	0.88551 0.40467 0.50081 0.05500
H 	H 	0.87673 0.57671 0.35017 0.03500
H 	H 	0.83348 0.54187 0.33362 0.02900
H 	H 	0.83219 0.65128 0.41114 0.03000
H 	H 	0.81318 0.59614 0.48751 0.03800
