data_crystal

_cell_length_a 40.74910
_cell_length_b 19.38060
_cell_length_c 12.79290
_cell_angle_alpha 90.64090
_cell_angle_beta  90.68300
_cell_angle_gamma 88.79660

_symmetry_space_group_name_	'P 1'
_symmetry_space_group_name_H-M	'P 1'

loop_
_symmetry_equiv_pos_as_xyz
  x,y,z

loop_
_atom_site_label
_atom_site_type_symbol
_atom_site_fract_x
_atom_site_fract_y
_atom_site_fract_z
_atom_site_charge
Eu	Eu	0.38803 0.73187 0.21178 1.78900
O 	O 	0.33821 0.82386 0.09428 -0.27900
C 	C 	0.32220 0.68391 0.13772 0.04200
O 	O 	0.42058 0.76595 0.02515 -0.33300
O 	O 	0.43299 0.79729 0.18995 -0.40700
O 	O 	0.43465 0.63356 0.31451 -0.30600
O 	O 	0.33817 0.66729 0.21472 -0.20300
O 	O 	0.34158 0.66680 0.22421 -0.11700
O 	O 	0.35842 0.82864 0.25784 -0.38800
C 	C 	0.33381 0.84233 0.18438 0.32200
O 	O 	0.40135 0.71601 0.38296 -0.40300
C 	C 	0.42548 0.66467 0.39255 0.28000
C 	C 	0.43623 0.80379 0.08278 0.33100
Eu	Eu	0.88160 0.76690 0.72780 1.84700
O 	O 	0.82129 0.85074 0.71814 -0.30300
C 	C 	0.84463 0.62918 0.73110 0.28100
O 	O 	0.93966 0.84079 0.84840 -0.25300
O 	O 	0.89201 0.87824 0.77396 -0.41400
O 	O 	0.94484 0.69766 0.77734 -0.28800
O 	O 	0.82722 0.66735 0.78390 -0.30000
O 	O 	0.87161 0.65565 0.68161 -0.41900
O 	O 	0.85160 0.80541 0.58770 -0.40000
C 	C 	0.82520 0.84519 0.62410 0.27900
O 	O 	0.92837 0.75402 0.63339 -0.38700
C 	C 	0.94665 0.70221 0.68268 0.32000
C 	C 	0.91732 0.88353 0.84726 0.26200
Eu	Eu	0.11379 0.24860 0.27381 1.88000
O 	O 	0.18189 0.17411 0.27071 -0.26000
C 	C 	0.16509 0.35355 0.23456 0.33500
O 	O 	0.04705 0.25590 0.17194 -0.29500
O 	O 	0.07896 0.16494 0.21973 -0.42900
O 	O 	0.07327 0.37684 0.32674 -0.27000
O 	O 	0.15867 0.32493 0.15176 -0.32100
O 	O 	0.14955 0.33195 0.32424 -0.40400
O 	O 	0.13872 0.16864 0.37802 -0.40100
C 	C 	0.16528 0.13866 0.32670 0.26200
O 	O 	0.07936 0.27473 0.40774 -0.40200
C 	C 	0.06367 0.33828 0.39383 0.28400
C 	C 	0.05034 0.19341 0.17701 0.33600
Eu	Eu	0.61764 0.26136 0.79353 1.89300
O 	O 	0.65574 0.13414 0.80025 -0.29800
C 	C 	0.68297 0.32364 0.85933 0.33400
O 	O 	0.57335 0.16066 0.91148 -0.28900
O 	O 	0.58366 0.17616 0.74045 -0.41500
O 	O 	0.55450 0.32697 0.80256 -0.31300
O 	O 	0.68662 0.26577 0.89433 -0.27100
O 	O 	0.65153 0.34893 0.83831 -0.41800
O 	O 	0.65523 0.21706 0.67851 -0.39400
C 	C 	0.66557 0.15291 0.71584 0.33700
O 	O 	0.59223 0.33295 0.67668 -0.39500
C 	C 	0.56271 0.35387 0.72158 0.33100
C 	C 	0.56967 0.14046 0.82167 0.29500
C 	C 	0.28798 0.66322 0.12254 0.08300
C 	C 	0.26945 0.69930 0.04719 -0.14000
C 	C 	0.23718 0.68139 0.02409 0.22800
O 	O 	0.21949 0.71861 -0.05148 -0.26900
C 	C 	0.22336 0.62592 0.07571 -0.15200
C 	C 	0.24154 0.58900 0.15138 0.12800
C 	C 	0.22682 0.52704 0.19673 -0.05100
C 	C 	0.23787 0.46082 0.16461 0.07800
Br	Br	0.27755 0.44976 0.08434 -0.16900
C 	C 	0.21882 0.40291 0.18503 0.11300
Br	Br	0.23414 0.31235 0.14071 -0.14400
C 	C 	0.18846 0.41101 0.23641 -0.10300
C 	C 	0.17905 0.47630 0.27741 0.11000
Br	Br	0.13824 0.48854 0.35115 -0.15500
C 	C 	0.19836 0.53413 0.25795 0.07700
Br	Br	0.18524 0.62402 0.31123 -0.16900
C 	C 	0.27380 0.60855 0.17632 -0.09200
H 	H 	0.28010 0.74187 0.00611 0.10800
H 	H 	0.19622 0.70224 0.93765 0.17300
H 	H 	0.19860 0.61071 0.05576 0.10200
H 	H 	0.28799 0.57982 0.23399 0.09600
C 	C 	0.80226 0.88068 0.55087 0.00500
C 	C 	0.80324 0.86637 0.44300 -0.09000
C 	C 	0.78123 0.89946 0.37404 0.20600
O 	O 	0.78266 0.88348 0.26745 -0.26900
C 	C 	0.75806 0.94759 0.41290 -0.13400
C 	C 	0.75706 0.96275 0.52005 0.11200
C 	C 	0.73276 1.01330 0.56138 -0.05100
C 	C 	0.70075 0.99239 0.58349 0.06900
Br	Br	0.68808 0.89885 0.55284 -0.15900
C 	C 	0.67834 0.03908 0.63037 0.12000
Br	Br	0.63449 0.00972 0.65998 -0.16200
C 	C 	0.68788 0.10698 0.65536 -0.10500
C 	C 	0.71970 0.12829 0.63043 0.11600
Br	Br	0.73385 0.21936 0.66859 -0.15900
C 	C 	0.74205 0.08157 0.58314 0.08000
Br	Br	0.78574 0.11034 0.55001 -0.16700
C 	C 	0.77906 0.92930 0.58869 -0.05600
H 	H 	0.82081 0.82895 0.41211 0.10100
H 	H 	0.76541 0.90887 0.22402 0.16400
H 	H 	0.74079 0.97307 0.36024 0.09800
H 	H 	0.77806 0.94159 0.67152 0.08500
C 	C 	0.17206 0.06386 0.33516 0.00300
C 	C 	0.14713 0.01944 0.36545 -0.08200
C 	C 	0.15224 0.94784 0.36277 0.20000
O 	O 	0.12681 0.90497 0.39159 -0.25900
C 	C 	0.18260 0.92031 0.33026 -0.12900
C 	C 	0.20818 0.96412 0.30429 0.10200
C 	C 	0.24063 0.93468 0.27417 -0.04100
C 	C 	0.25289 0.94534 0.17323 0.06900
Br	Br	0.22656 -0.00454 0.07140 -0.15500
C 	C 	0.28381 0.91769 0.14499 0.11000
Br	Br	0.30083 0.94028 0.00942 -0.12900
C 	C 	0.30209 0.87568 0.21589 -0.10500
C 	C 	0.28907 0.86358 0.31630 0.11000
Br	Br	0.31003 0.79961 0.41237 -0.17100
C 	C 	0.25911 0.89490 0.34614 0.07300
Br	Br	0.24374 0.88457 0.48754 -0.15400
C 	C 	0.20277 0.03584 0.30707 -0.04600
H 	H 	0.12332 0.03999 0.38839 0.10100
H 	H 	0.13277 0.85399 0.38645 0.17100
H 	H 	0.18652 0.86486 0.32633 0.10100
H 	H 	0.22241 0.06967 0.28589 0.09300
C 	C 	0.83755 0.55496 0.71924 0.00200
C 	C 	0.86043 0.51019 0.67012 -0.08800
C 	C 	0.85419 0.43983 0.65848 0.20800
O 	O 	0.87742 0.39686 0.60952 -0.26800
C 	C 	0.82477 0.41372 0.69573 -0.13400
C 	C 	0.80167 0.45776 0.74390 0.11400
C 	C 	0.77013 0.42993 0.77737 -0.04400
C 	C 	0.76678 0.40462 0.87924 0.07700
Br	Br	0.80259 0.41253 0.97824 -0.16000
C 	C 	0.73765 0.37239 0.90788 0.11600
Br	Br	0.73274 0.34082 1.04931 -0.14300
C 	C 	0.71185 0.36500 0.83421 -0.10000
C 	C 	0.71473 0.39351 0.73352 0.11700
Br	Br	0.67995 0.38490 0.63060 -0.14500
C 	C 	0.74395 0.42535 0.70513 0.07900
Br	Br	0.74877 0.46066 0.56568 -0.14900
C 	C 	0.80812 0.52817 0.75612 -0.05500
H 	H 	0.88332 0.52956 0.64107 0.10100
H 	H 	0.87113 0.34652 0.60725 0.16700
H 	H 	0.81964 0.35938 0.68619 0.10400
H 	H 	0.79002 0.56191 0.79294 0.08700
C 	C 	0.43980 0.64826 0.49625 0.00400
C 	C 	0.43116 0.68844 0.58436 -0.08900
C 	C 	0.44466 0.67365 0.68282 0.20300
O 	O 	0.43579 0.71512 0.76837 -0.26400
C 	C 	0.46686 0.61787 0.69387 -0.13400
C 	C 	0.47562 0.57735 0.60675 0.11100
C 	C 	0.49863 0.51832 0.62022 -0.04700
C 	C 	0.48643 0.45146 0.63101 0.07400
Br	Br	0.44019 0.43541 0.61105 -0.16400
C 	C 	0.50780 0.39671 0.65900 0.11200
Br	Br	0.49072 0.30514 0.67464 -0.15100
C 	C 	0.54155 0.40859 0.67523 -0.10400
C 	C 	0.55405 0.47473 0.65708 0.10900
Br	Br	0.60009 0.49205 0.67730 -0.14500
C 	C 	0.53254 0.52955 0.62987 0.07500
Br	Br	0.54911 0.62083 0.60921 -0.15900
C 	C 	0.46221 0.59264 0.50817 -0.05400
H 	H 	0.41401 0.73163 0.57707 0.10500
H 	H 	0.44739 0.70155 0.83581 0.16300
H 	H 	0.47725 0.60582 0.77006 0.09400
H 	H 	0.46914 0.56090 0.44135 0.08700
C 	C 	0.91619 0.93974 0.92537 -0.00100
C 	C 	0.88583 0.96027 0.96751 -0.08600
C 	C 	0.88406 1.01123 0.04539 0.20100
O 	O 	0.85370 1.02783 0.08962 -0.27000
C 	C 	0.91272 1.04428 0.07827 -0.13800
C 	C 	0.94314 1.02540 0.03511 0.10300
C 	C 	0.97266 0.06358 0.06740 -0.04600
C 	C 	-0.01358 0.05402 0.16787 0.07900
Br	Br	-0.02989 0.98279 0.25651 -0.17000
C 	C 	0.01186 0.09649 0.20378 0.11200
Br	Br	0.02814 0.08711 0.34542 -0.16300
C 	C 	0.02409 0.14796 0.13842 -0.10900
C 	C 	0.01108 0.15580 0.03636 0.10700
Br	Br	0.02927 0.22204 0.94271 -0.16200
C 	C 	0.98518 0.11422 1.00143 0.08100
Br	Br	0.96581 0.12872 0.86472 -0.16200
C 	C 	0.94493 0.97213 0.95992 -0.04700
H 	H 	0.86353 0.93527 0.94204 0.08000
H 	H 	0.85504 1.06348 0.14799 0.16400
H 	H 	0.91137 0.08491 0.13699 0.10200
H 	H 	0.96843 0.95718 0.92684 0.08700
C 	C 	0.55072 0.07804 0.79673 0.00600
C 	C 	0.54996 0.05340 0.69292 -0.08000
C 	C 	0.53288 -0.00579 0.66582 0.21100
O 	O 	0.53330 -0.02927 0.56221 -0.25600
C 	C 	0.51560 -0.04026 0.74252 -0.12400
C 	C 	0.51556 -0.01612 0.84632 0.11400
C 	C 	0.49536 0.94780 0.92304 -0.04900
C 	C 	0.51013 0.90329 0.99725 0.07800
Br	Br	0.55725 0.89945 1.01308 -0.15800
C 	C 	0.49057 0.85872 0.05519 0.10900
Br	Br	0.51087 0.79534 0.15277 -0.16400
C 	C 	0.45639 0.85786 0.03732 -0.10800
C 	C 	0.44153 0.90547 -0.03201 0.10800
Br	Br	0.39444 0.90854 -0.05068 -0.14800
C 	C 	0.46092 0.95067 0.91172 0.07300
Br	Br	0.44035 0.01506 0.81587 -0.14400
C 	C 	0.53346 0.04271 0.87378 -0.04500
H 	H 	0.56288 0.07974 0.63212 0.11000
H 	H 	0.52034 -0.07274 0.55004 0.17200
H 	H 	0.50167 0.91471 0.72109 0.09400
H 	H 	0.53356 0.06115 -0.04597 0.08600
C 	C 	0.03542 0.35801 0.45950 0.00800
C 	C 	0.01808 0.30680 0.51115 -0.08500
C 	C 	0.99128 0.32444 0.57394 0.20700
O 	O 	0.97445 0.27218 0.62345 -0.25500
C 	C 	0.98194 0.39402 0.58668 -0.13200
C 	C 	0.99921 0.44563 0.53623 0.11100
C 	C 	0.99008 0.51867 0.55559 -0.04800
C 	C 	0.00741 0.55702 0.63128 0.07900
Br	Br	0.04707 0.51896 0.69368 -0.15700
C 	C 	0.99493 0.62157 0.66501 0.10900
Br	Br	0.01906 0.67421 0.76817 -0.13900
C 	C 	0.96487 0.64766 0.62382 -0.10000
C 	C 	0.94979 0.61279 0.53872 0.10500
Br	Br	0.91108 0.65032 0.46998 -0.17300
C 	C 	0.96222 0.54787 0.50581 0.07400
Br	Br	0.94036 0.49685 0.39573 -0.16400
C 	C 	0.02563 0.42755 0.47161 -0.05000
H 	H 	0.02513 0.25286 0.50210 0.10700
H 	H 	0.95539 0.28987 0.66708 0.16900
H 	H 	0.96149 0.40810 0.63656 0.09800
H 	H 	0.03891 0.46774 0.43312 0.09400
