data_crystal

_cell_length_a 36.23840
_cell_length_b 19.85730
_cell_length_c 9.25180
_cell_angle_alpha 91.84010
_cell_angle_beta  87.81840
_cell_angle_gamma 86.99280

_symmetry_space_group_name_	'P 1'
_symmetry_space_group_name_H-M	'P 1'

loop_
_symmetry_equiv_pos_as_xyz
  x,y,z

loop_
_atom_site_label
_atom_site_type_symbol
_atom_site_fract_x
_atom_site_fract_y
_atom_site_fract_z
_atom_site_charge
Eu	Eu	0.38774 0.73562 0.25380 1.79700
O 	O 	0.32805 0.82200 0.13273 -0.31100
C 	C 	0.34617 0.60782 0.30355 0.32300
O 	O 	0.41029 0.87034 0.11283 -0.29400
O 	O 	0.44041 0.79382 0.24692 -0.43300
O 	O 	0.45365 0.66428 0.35803 -0.32600
O 	O 	0.37846 0.58764 0.29857 -0.32900
O 	O 	0.33651 0.67395 0.26774 -0.44900
O 	O 	0.35313 0.82618 0.35119 -0.41300
C 	C 	0.32569 0.84476 0.25678 0.28500
O 	O 	0.40214 0.70578 0.48102 -0.43000
C 	C 	0.43785 0.67626 0.47576 0.32700
C 	C 	0.43821 0.85410 0.17516 0.28100
Eu	Eu	0.87654 0.74073 0.81724 1.78600
O 	O 	0.81658 0.84671 0.85895 -0.32200
C 	C 	0.81513 0.63566 0.79265 0.32900
O 	O 	0.90763 0.87435 0.91393 -0.33000
O 	O 	0.93445 0.78029 0.80158 -0.43900
O 	O 	0.93624 0.63704 0.78790 -0.31800
O 	O 	0.84263 0.59806 0.77939 -0.30200
O 	O 	0.81770 0.70372 0.82992 -0.44000
O 	O 	0.85680 0.82386 0.66943 -0.43100
C 	C 	0.82938 0.86475 0.74339 0.32300
O 	O 	0.89328 0.66669 0.62964 -0.41200
C 	C 	0.92142 0.62295 0.67581 0.28200
C 	C 	0.93396 0.84849 0.84212 0.32200
Eu	Eu	0.11934 0.28481 0.16071 1.77000
O 	O 	0.14913 0.17274 -0.03382 -0.31600
C 	C 	0.18978 0.33653 0.02743 0.26500
O 	O 	0.06609 0.19977 -0.02853 -0.30500
O 	O 	0.07844 0.20420 0.20862 -0.43600
O 	O 	0.10946 0.42108 0.33858 -0.30400
O 	O 	0.18168 0.30184 -0.07637 -0.28600
O 	O 	0.16180 0.36369 0.12195 -0.42300
O 	O 	0.16641 0.20599 0.18815 -0.42300
C 	C 	0.16994 0.16356 0.06501 0.32800
O 	O 	0.11673 0.31218 0.40148 -0.42700
C 	C 	0.10191 0.37785 0.42418 0.30400
C 	C 	0.06788 0.17019 0.08458 0.28000
Eu	Eu	0.62415 0.24359 0.71778 1.85900
O 	O 	0.68276 0.13478 0.36588 -0.20000
C 	C 	0.68696 0.29188 0.88645 0.25300
O 	O 	0.57601 0.20034 0.94657 -0.33300
O 	O 	0.56796 0.19829 0.70622 -0.43700
O 	O 	0.57037 0.36505 0.82015 -0.29600
O 	O 	0.67634 0.24680 0.96131 -0.29700
O 	O 	0.67958 0.29018 0.74021 -0.43100
O 	O 	0.63978 0.20028 0.49162 -0.40200
C 	C 	0.66896 0.15173 0.48443 0.27200
O 	O 	0.60401 0.34025 0.61295 -0.41800
C 	C 	0.58503 0.38554 0.71056 0.27300
C 	C 	0.55672 0.18460 0.84718 0.32300
C 	C 	0.31667 0.56262 0.35350 -0.20800
C 	C 	0.31173 0.50473 0.24367 0.01000
C 	C 	0.28465 0.45526 0.30618 -0.13400
C 	C 	0.27514 0.40234 0.19532 0.07800
C 	C 	0.23830 0.39663 0.15658 -0.06400
C 	C 	0.22888 0.34551 0.05856 -0.01900
C 	C 	0.25685 0.30012 -0.00142 -0.07400
C 	C 	0.29350 0.30529 0.03739 0.13900
Br	Br	0.33100 0.24159 -0.04027 -0.24300
C 	C 	0.30261 0.35601 0.13573 -0.11800
H 	H 	0.32436 0.54210 0.45926 0.08300
H 	H 	0.29007 0.59279 0.37002 0.08700
H 	H 	0.30095 0.52572 0.14253 0.03000
H 	H 	0.33890 0.47762 0.21716 0.03500
H 	H 	0.25909 0.48399 0.34836 0.06200
H 	H 	0.29712 0.42973 0.39922 0.06600
H 	H 	0.21688 0.43138 0.20454 0.06300
H 	H 	0.25012 0.25946 -0.07491 0.08000
H 	H 	0.33098 0.35867 0.16708 0.08000
C 	C 	0.81740 0.93194 0.68441 -0.19900
C 	C 	0.78062 0.96248 0.75408 0.00100
C 	C 	0.77553 0.03835 0.72637 -0.12400
C 	C 	0.73531 0.06333 0.73184 0.06800
C 	C 	0.72083 0.09636 0.61317 -0.03900
C 	C 	0.68363 0.12048 0.61484 -0.06800
C 	C 	0.66077 0.11065 0.73724 -0.09800
C 	C 	0.67504 0.07817 0.85664 0.13700
Br	Br	0.64343 0.06356 0.02122 -0.22200
C 	C 	0.71226 0.05499 0.85445 -0.11000
H 	H 	0.83996 0.96676 0.70189 0.08000
H 	H 	0.81428 0.92555 0.56572 0.08300
H 	H 	0.75748 0.93494 0.70877 0.04300
H 	H 	0.77994 0.95637 0.87325 0.04500
H 	H 	0.78839 0.04871 0.61892 0.06200
H 	H 	0.79044 0.06726 0.80848 0.06400
H 	H 	0.73861 0.10353 0.51892 0.05800
H 	H 	0.63170 0.12607 0.73879 -0.04200
H 	H 	0.72296 0.02950 0.94684 0.08400
C 	C 	0.19920 0.10713 0.05228 -0.21000
C 	C 	0.19593 0.05893 0.17841 0.01900
C 	C 	0.21355 -0.01230 0.13816 -0.13100
C 	C 	0.23825 0.95835 0.25141 0.08100
C 	C 	0.27014 0.91895 0.20602 -0.06000
C 	C 	0.29362 0.88951 0.30677 -0.02000
C 	C 	0.28515 0.90079 0.45502 -0.07000
C 	C 	0.25297 0.93856 0.50132 0.14300
Br	Br	0.24114 0.95188 0.70311 -0.25600
C 	C 	0.22916 0.96606 0.40029 -0.11600
H 	H 	0.19633 0.07930 -0.05270 0.10400
H 	H 	0.22685 0.12893 0.05159 0.09500
H 	H 	0.20905 0.08232 0.27328 0.04200
H 	H 	0.16623 1.05329 0.20851 0.03400
H 	H 	0.22983 -0.01167 0.03375 0.08100
H 	H 	0.19124 0.95254 0.11885 0.07400
H 	H 	0.27650 0.91044 0.09139 0.07100
H 	H 	0.30299 0.87871 0.53444 0.08000
H 	H 	0.20392 0.99376 0.43826 0.08500
C 	C 	0.77752 0.60938 0.76741 -0.21000
C 	C 	0.77129 0.54644 0.85444 0.01600
C 	C 	0.73101 0.52656 0.84865 -0.14100
C 	C 	0.72451 0.46523 0.93605 0.09100
C 	C 	0.71187 0.40653 0.86991 -0.07100
C 	C 	0.70431 0.35039 0.95278 -0.01000
C 	C 	0.71046 0.35294 1.10200 -0.08300
C 	C 	0.72283 0.41127 0.16827 0.15500
Br	Br	0.72975 0.41487 0.37225 -0.23800
C 	C 	0.72937 0.46742 1.08609 -0.12700
H 	H 	0.77522 0.59719 0.65016 0.09400
H 	H 	0.75606 0.64970 0.79968 0.09500
H 	H 	0.78991 0.50389 0.80955 0.04800
H 	H 	0.77825 0.55702 0.96855 0.03400
H 	H 	0.72420 0.51728 0.73370 0.08000
H 	H 	0.71225 0.56880 0.89345 0.07300
H 	H 	0.70691 0.40551 0.75496 0.07300
H 	H 	0.70495 0.31025 1.16776 0.09000
H 	H 	0.73812 0.51281 0.13954 0.09000
C 	C 	0.45648 0.66009 0.61412 -0.20000
C 	C 	0.49568 0.62846 0.58538 0.00500
C 	C 	0.51469 0.61117 0.72579 -0.13000
C 	C 	0.54970 0.56825 0.69147 0.07700
C 	C 	0.55198 0.49981 0.72646 -0.05900
C 	C 	0.58298 0.45805 0.68038 -0.02200
C 	C 	0.61214 0.48565 0.60196 -0.07200
C 	C 	0.61047 0.55401 0.57038 0.14000
Br	Br	0.65020 0.59056 0.46192 -0.23500
C 	C 	0.57947 0.59526 0.61519 -0.11600
H 	H 	0.45779 0.70748 0.68058 0.07400
H 	H 	0.43956 0.62440 0.67454 0.07300
H 	H 	0.49393 0.58152 0.51749 0.04400
H 	H 	0.51247 0.66439 0.52479 0.04400
H 	H 	0.49550 0.58366 0.79641 0.05500
H 	H 	0.52126 0.65825 0.78558 0.06200
H 	H 	0.52901 0.47843 0.78415 0.05900
H 	H 	0.63630 0.45421 0.56614 0.08100
H 	H 	0.57818 0.64788 0.58764 0.08500
C 	C 	0.96490 0.89022 0.79162 -0.20900
C 	C 	0.98390 0.92389 0.91809 0.01400
C 	C 	0.01767 0.96037 0.86171 -0.14300
C 	C 	0.03687 -0.00450 0.98230 0.08700
C 	C 	0.04119 0.06555 0.98114 -0.06200
C 	C 	0.06064 0.09772 0.08999 -0.02200
C 	C 	0.07541 0.05922 0.20087 -0.07400
C 	C 	0.07159 -0.01037 1.20151 0.14100
Br	Br	0.09340 -0.06234 1.34937 -0.25200
C 	C 	0.05255 0.95783 1.09268 -0.12600
H 	H 	0.98551 0.85718 0.72677 0.08900
H 	H 	0.95362 0.92946 0.71987 0.08100
H 	H 	0.96403 0.96094 -0.02351 0.03600
H 	H 	-0.00727 0.88445 0.99425 0.02900
H 	H 	1.00855 -0.00271 0.78047 0.06800
H 	H 	0.03787 0.92326 0.80571 0.07100
H 	H 	0.02986 0.09483 0.89483 0.06100
H 	H 	0.09093 0.08269 0.28474 0.07400
H 	H 	0.05045 0.90363 1.09349 0.08000
C 	C 	0.52062 0.15281 0.87863 -0.20000
C 	C 	0.52619 0.08454 0.95210 0.00300
C 	C 	0.49483 0.07465 0.06485 -0.12500
C 	C 	0.49745 1.00537 0.12762 0.07500
C 	C 	0.46815 0.96187 0.11491 -0.05900
C 	C 	0.46985 0.89849 0.17865 -0.02400
C 	C 	0.50164 0.87822 0.25187 -0.07000
C 	C 	0.53077 0.92112 0.26476 0.14000
Br	Br	0.57330 0.89321 0.36802 -0.22700
C 	C 	0.52844 0.98471 0.20479 -0.11500
H 	H 	0.50315 0.18907 -0.05086 0.08900
H 	H 	0.50605 0.14530 0.77643 0.09100
H 	H 	0.52714 0.04284 0.86848 0.04200
H 	H 	0.55291 0.08203 1.00748 0.05500
H 	H 	0.46771 0.08385 0.01453 0.06600
H 	H 	0.49646 0.11292 0.15439 0.07000
H 	H 	0.44392 0.97793 0.05748 0.06300
H 	H 	0.50375 0.82968 0.30177 0.08100
H 	H 	0.55083 1.01805 0.21875 0.09000
C 	C 	0.07491 0.39414 0.54845 -0.20800
C 	C 	0.03717 0.41679 0.49161 0.01000
C 	C 	0.00631 0.41568 0.60930 -0.13300
C 	C 	0.97258 0.45672 0.56612 0.07500
C 	C 	0.96261 0.51852 0.63836 -0.06000
C 	C 	0.93225 0.55909 0.59524 -0.02100
C 	C 	0.91184 0.53688 0.47866 -0.06800
C 	C 	0.92126 0.47471 0.40783 0.13500
Br	Br	0.89243 0.44435 0.25244 -0.24600
C 	C 	0.95150 0.43467 0.45125 -0.11600
H 	H 	0.07223 0.34835 0.61345 0.07900
H 	H 	0.08540 0.43499 0.61811 0.08000
H 	H 	0.03890 0.46873 0.45071 0.03300
H 	H 	1.03018 0.38294 0.39955 0.01000
H 	H 	0.01634 0.43599 0.71331 0.05500
H 	H 	-0.00100 0.36282 0.62701 0.06000
H 	H 	-0.02122 0.53526 0.72762 0.06000
H 	H 	0.88831 0.56717 0.44380 0.07800
H 	H 	0.95869 0.38674 0.39521 0.07400
