data_crystal

_cell_length_a 27.73210
_cell_length_b 16.95080
_cell_length_c 10.91860
_cell_angle_alpha 90.62640
_cell_angle_beta  88.60770
_cell_angle_gamma 93.13680

_symmetry_space_group_name_	'P 1'
_symmetry_space_group_name_H-M	'P 1'

loop_
_symmetry_equiv_pos_as_xyz
  x,y,z

loop_
_atom_site_label
_atom_site_type_symbol
_atom_site_fract_x
_atom_site_fract_y
_atom_site_fract_z
_atom_site_charge
Gd	Gd	0.41442 0.74845 0.18079 1.44300
O 	O 	0.45717 0.59683 0.28722 -0.27200
C 	C 	0.47856 0.89426 0.08889 0.27100
O 	O 	0.33031 0.62316 0.32475 -0.22800
O 	O 	0.37793 0.62521 0.15354 -0.35700
O 	O 	0.35593 0.91409 0.21722 -0.25900
O 	O 	0.47796 0.96315 0.05938 -0.21400
O 	O 	0.45242 0.87096 0.19475 -0.35200
O 	O 	0.44452 0.71752 0.36646 -0.36200
C 	C 	0.45477 0.63853 0.37819 0.28500
O 	O 	0.34953 0.79032 0.29135 -0.36300
C 	C 	0.34980 0.87208 0.30642 0.29000
C 	C 	0.33352 0.61390 0.21419 0.27000
Gd	Gd	0.86734 0.75311 0.78039 1.38200
O 	O 	0.97631 0.64327 0.57762 -0.21200
C 	C 	0.93838 0.88623 0.88081 0.25700
O 	O 	0.76205 0.63627 0.67419 -0.22000
O 	O 	0.84096 0.63099 0.71479 -0.36300
O 	O 	0.77741 0.86513 0.73588 -0.26100
O 	O 	0.97013 0.87742 0.80359 -0.22800
O 	O 	0.89021 0.87642 0.84954 -0.37400
O 	O 	0.93549 0.74204 0.66163 -0.33100
C 	C 	0.95509 0.66813 0.66779 0.28200
O 	O 	0.83569 0.81282 0.61767 -0.33300
C 	C 	0.80820 0.87532 0.65532 0.27800
C 	C 	0.79231 0.61618 0.74490 0.24800
Gd	Gd	0.08089 0.28764 0.25798 1.39500
O 	O 	0.04717 0.44867 0.34831 -0.26000
C 	C 	0.00177 0.16136 0.16897 0.26300
O 	O 	0.10179 0.47236 0.10634 -0.23500
O 	O 	0.13718 0.39140 0.23752 -0.35100
O 	O 	0.17783 0.07626 0.17082 -0.17900
O 	O 	-0.03949 0.15556 0.13292 -0.21400
O 	O 	0.01276 0.20425 0.27540 -0.35500
O 	O 	0.05803 0.33450 0.44522 -0.35500
C 	C 	0.03456 0.40396 0.43087 0.26400
O 	O 	0.13665 0.20467 0.34674 -0.27300
C 	C 	0.18693 0.12313 0.25650 0.14100
C 	C 	0.13316 0.42644 0.12333 0.26000
Gd	Gd	0.62051 0.25680 0.65709 1.36200
O 	O 	0.56818 0.46599 0.55935 -0.23700
C 	C 	0.58606 0.14251 0.87521 0.21500
O 	O 	0.73799 0.35892 0.84217 -0.21600
O 	O 	0.68720 0.33740 0.68820 -0.35500
O 	O 	0.73512 0.10374 0.73805 -0.20000
O 	O 	0.57111 0.16704 0.97327 -0.22200
O 	O 	0.62961 0.17573 0.82319 -0.25300
O 	O 	0.59792 0.34775 0.51887 -0.37300
C 	C 	0.56082 0.39454 0.55983 0.27100
O 	O 	0.66467 0.16339 0.75062 -0.24800
C 	C 	0.70312 0.13241 0.68187 0.24600
C 	C 	0.69650 0.36045 0.80839 0.29500
C 	C 	0.29021 0.59507 0.14276 -0.03300
C 	C 	0.26808 0.65719 0.08686 -0.05300
C 	C 	0.22788 0.64190 1.01446 0.12700
Br	Br	0.19903 0.72682 0.93517 -0.22700
C 	C 	0.20959 0.56439 0.99717 -0.08300
C 	C 	0.23163 0.50084 0.05084 0.02900
C 	C 	0.21356 0.41925 0.01850 0.04800
C 	C 	0.24486 0.36598 0.96383 -0.08200
C 	C 	0.22596 0.29732 0.90480 0.04300
C 	C 	0.25639 0.23981 0.86011 -0.06200
C 	C 	0.23710 0.17334 0.79792 -0.00800
C 	C 	0.18751 0.16314 0.78060 -0.03800
C 	C 	0.15666 0.21920 -0.17363 -0.02500
C 	C 	0.17549 0.28586 -0.10986 -0.00300
C 	C 	0.14458 0.33788 -0.05226 -0.01100
C 	C 	0.16350 0.39956 0.02117 -0.09000
C 	C 	0.27234 0.51653 0.12390 -0.02600
H 	H 	0.28243 0.71749 0.09853 0.05900
H 	H 	0.17908 0.55347 0.93802 0.08500
H 	H 	0.28358 0.37876 0.96491 0.05800
H 	H 	0.29467 0.24524 0.87657 0.05400
H 	H 	0.26041 0.12950 0.76270 0.02900
H 	H 	0.17298 0.11131 -0.26752 0.05000
H 	H 	0.11816 0.20964 -0.18605 0.04500
H 	H 	0.10582 0.32603 -0.05410 0.01100
H 	H 	0.29017 0.46828 0.16459 0.05100
C 	C 	0.81749 0.95411 0.60085 -0.04200
C 	C 	0.86519 -0.01573 0.58147 -0.02700
C 	C 	0.87441 0.05971 0.53277 0.12800
Br	Br	0.93944 0.10012 0.50598 -0.21300
C 	C 	0.83609 0.10544 0.50243 -0.07700
C 	C 	0.78811 0.07613 0.52053 0.02800
C 	C 	0.74767 0.12041 0.47402 0.05400
C 	C 	0.75001 0.14179 0.34965 -0.07700
C 	C 	0.71071 0.17420 0.29456 0.05400
C 	C 	0.71357 0.19817 0.17185 -0.05400
C 	C 	0.67366 0.22953 0.11826 0.00200
C 	C 	0.63066 0.23603 0.18607 -0.02600
C 	C 	0.62714 0.21109 0.30717 -0.01900
C 	C 	0.66724 0.18104 0.36247 -0.01500
C 	C 	0.66470 0.15942 0.48531 -0.01200
C 	C 	0.70548 0.13593 0.54561 -0.09000
C 	C 	0.77911 0.00011 0.56968 0.00400
H 	H 	0.89522 0.94957 0.60511 0.07700
H 	H 	0.84371 0.16327 0.46290 0.09000
H 	H 	0.78227 0.13159 0.29492 0.07000
H 	H 	0.74659 0.19312 0.11793 0.07000
H 	H 	0.67605 0.24847 0.02406 0.05800
H 	H 	0.59978 0.26022 0.14543 0.06300
H 	H 	0.59340 0.21647 0.35796 0.03200
H 	H 	0.63062 0.16111 0.53370 -0.08700
H 	H 	0.74225 0.97614 0.58105 0.05500
C 	C 	0.24029 0.10788 0.27606 0.03000
C 	C 	0.27593 0.14343 0.19738 -0.09000
C 	C 	0.32424 0.12519 0.20577 0.14200
Br	Br	0.37206 0.17476 0.09884 -0.24900
C 	C 	0.33747 0.07005 0.29118 -0.09200
C 	C 	0.30212 0.02918 0.36392 0.04300
C 	C 	0.31665 -0.02637 0.45865 0.03900
C 	C 	0.30537 -0.00786 0.58165 -0.06200
C 	C 	0.32425 0.95022 0.67769 0.02400
C 	C 	0.31451 0.97075 0.80053 -0.04800
C 	C 	0.33651 0.93242 0.89508 -0.02500
C 	C 	0.36842 0.87343 0.86807 0.00200
C 	C 	0.37758 0.85139 0.74634 -0.04900
C 	C 	0.35505 0.88860 0.65066 0.01300
C 	C 	0.36288 0.86523 0.52872 -0.00900
C 	C 	0.34322 0.90578 0.43160 -0.07400
C 	C 	0.25357 0.04810 0.35547 -0.05500
H 	H 	0.26603 0.18516 0.12915 0.07700
H 	H 	0.37527 0.05847 0.29999 0.09600
H 	H 	0.28354 0.04185 0.60239 0.04600
H 	H 	0.29036 0.01667 0.82396 0.05500
H 	H 	0.32913 0.94919 0.98927 0.06000
H 	H 	0.38599 0.84473 0.94157 0.00500
H 	H 	0.40271 0.80627 0.72661 0.05800
H 	H 	0.38490 0.81551 0.50907 0.05100
H 	H 	0.22629 1.01660 0.41145 0.04900
C 	C 	0.77745 0.57478 0.85959 -0.04800
C 	C 	0.80970 0.57112 0.95642 -0.06200
C 	C 	0.79548 0.53168 0.06456 0.12500
Br	Br	0.83862 0.52837 0.19747 -0.22700
C 	C 	0.74968 0.49350 0.07561 -0.07400
C 	C 	0.71754 0.49482 0.97888 0.01700
C 	C 	0.67095 0.44765 0.98525 0.06000
C 	C 	0.63792 0.46226 0.08136 -0.09200
C 	C 	0.59205 0.42333 0.08476 0.06200
C 	C 	0.55900 0.43697 0.18130 -0.06900
C 	C 	0.51254 0.40047 0.18018 -0.00300
C 	C 	0.49861 0.35072 0.08296 -0.03600
C 	C 	0.53114 0.33664 0.98653 -0.01200
C 	C 	0.57810 0.37225 0.98709 -0.05000
C 	C 	0.61132 0.35676 0.89254 0.06000
C 	C 	0.65875 0.38998 0.89414 -0.13400
C 	C 	0.73109 0.53727 0.87237 -0.01700
H 	H 	0.84560 0.59938 0.94869 0.02400
H 	H 	0.73965 0.46098 0.15807 0.08000
H 	H 	0.64770 0.50515 0.15216 0.06600
H 	H 	0.56882 0.47650 0.25641 0.06500
H 	H 	0.48702 0.41125 0.25406 0.04500
H 	H 	0.46248 0.32315 1.08221 0.05900
H 	H 	0.51965 0.29797 0.91178 0.03300
H 	H 	0.60025 0.31648 0.82102 -0.11100
H 	H 	0.70596 0.53866 0.79801 0.05900
C 	C 	0.46046 0.60451 0.50089 -0.03100
C 	C 	0.44822 0.64777 0.60650 -0.06300
C 	C 	0.44609 0.61169 0.72113 0.13700
Br	Br	0.42025 0.66539 0.86031 -0.32400
C 	C 	0.45797 0.53321 0.73195 -0.09500
C 	C 	0.47181 0.48967 0.62823 0.02900
C 	C 	0.47282 0.40269 0.63586 0.04500
C 	C 	0.42922 0.36310 0.67288 -0.08300
C 	C 	0.42346 0.28112 0.66643 0.04500
C 	C 	0.37937 0.24257 0.70062 -0.05600
C 	C 	0.37377 0.16036 0.69336 -0.01000
C 	C 	0.41124 0.11663 0.64618 -0.02400
C 	C 	0.45465 0.15512 0.60822 -0.03400
C 	C 	0.46173 0.23704 0.62163 -0.01200
C 	C 	0.50608 0.27542 0.58916 -0.01000
C 	C 	0.51272 0.35817 0.59683 -0.11400
C 	C 	0.47289 0.52564 0.51297 -0.02200
H 	H 	0.43767 0.70795 0.59923 0.07100
H 	H 	0.45388 0.50470 0.82017 0.07100
H 	H 	0.39876 0.39684 0.70210 0.06000
H 	H 	0.34948 0.27641 0.73173 0.04800
H 	H 	0.34030 0.13070 0.72288 0.03600
H 	H 	0.40667 0.05308 0.63790 0.05200
H 	H 	0.48239 0.12141 0.56670 0.05500
H 	H 	0.53528 0.24045 0.55593 -0.03000
H 	H 	0.48051 0.49048 0.43229 0.05900
C 	C 	0.95022 0.90827 0.00758 -0.03200
C 	C 	0.92029 0.87910 0.10383 -0.05900
C 	C 	0.93180 0.89659 0.22512 0.12900
Br	Br	0.89302 0.84989 0.35423 -0.22400
C 	C 	-0.02823 0.94717 0.25140 -0.08500
C 	C 	0.00104 0.97963 0.15567 0.02600
C 	C 	0.04020 0.04034 0.17981 0.05600
C 	C 	0.06966 0.03390 0.28275 -0.06500
C 	C 	0.10526 0.09217 0.30284 0.06100
C 	C 	0.14543 0.09860 0.44176 -0.02200
C 	C 	0.19585 0.17958 0.45306 0.00100
C 	C 	0.20795 0.25276 0.32108 -0.10600
C 	C 	0.16702 0.24382 0.17639 -0.15800
C 	C 	0.11534 0.16469 0.17272 -0.08800
C 	C 	0.08076 0.15858 0.08527 -0.02700
C 	C 	0.03882 0.11285 0.11576 -0.08800
C 	C 	-0.00937 0.95835 0.03382 -0.02200
H 	H 	0.88900 0.84016 0.08496 0.04400
H 	H 	-0.02095 0.96251 0.34587 0.08700
H 	H 	0.06535 0.98423 0.34414 0.06100
H 	H 	0.13972 0.05620 0.51457 0.04600
H 	H 	0.21859 0.18301 0.53202 0.03400
H 	H 	0.24024 0.29653 0.34115 0.06200
H 	H 	0.19238 0.25928 0.23890 0.13000
H 	H 	0.07921 0.20584 0.02056 -0.00300
H 	H 	0.01325 0.98255 0.95944 0.05900
C 	C 	0.56308 0.07094 0.82057 -0.03700
C 	C 	0.55478 0.06741 0.69472 -0.05100
C 	C 	0.53395 -0.00124 0.64163 0.11800
Br	Br	0.52659 -0.00946 0.46797 -0.23800
C 	C 	0.52106 0.93373 0.71458 -0.09100
C 	C 	0.53226 0.93410 0.83965 0.01600
C 	C 	0.53249 0.85706 0.90285 0.05200
C 	C 	0.55869 0.79932 0.84099 -0.08400
C 	C 	0.55626 0.72135 0.87904 0.05300
C 	C 	0.57723 0.66276 0.80667 -0.05800
C 	C 	0.56926 0.58343 0.83732 -0.00800
C 	C 	0.54099 0.56285 0.94045 -0.03700
C 	C 	0.52351 0.62096 0.01826 -0.01900
C 	C 	0.53040 0.70081 0.98742 -0.01700
C 	C 	0.50901 0.75952 0.05825 -0.00000
C 	C 	0.50721 0.83743 0.01524 -0.11000
C 	C 	0.55338 0.00327 0.89215 -0.00400
H 	H 	0.56402 0.11812 0.63837 -0.00300
H 	H 	0.50582 0.88035 0.67169 0.07200
H 	H 	0.57904 0.81442 0.75766 0.06400
H 	H 	0.59776 0.67798 0.72375 0.06000
H 	H 	0.58353 0.53779 0.77915 0.04700
H 	H 	0.53092 0.50186 0.95769 0.04500
H 	H 	0.50187 0.60304 0.09723 0.04700
H 	H 	0.49247 0.74321 0.14537 -0.06900
H 	H 	0.56468 1.00314 -0.01351 0.06500
C 	C 	-0.00810 0.42013 0.50703 -0.03900
C 	C 	0.94651 0.38803 0.47233 -0.05400
C 	C 	0.90487 0.40681 0.53863 0.13400
Br	Br	0.84314 0.36328 0.49026 -0.21000
C 	C 	0.90840 0.45750 0.64023 -0.08100
C 	C 	0.95363 0.48963 0.67608 0.02700
C 	C 	0.95683 0.53976 0.78728 0.05000
C 	C 	0.95991 0.50178 0.90032 -0.07600
C 	C 	0.95990 0.54514 1.01019 0.04400
C 	C 	0.96372 0.50749 1.12329 -0.03500
C 	C 	0.96322 0.55175 1.23215 -0.00300
C 	C 	0.95932 0.63342 1.22910 -0.01200
C 	C 	0.95580 0.67137 1.11717 -0.03200
C 	C 	0.95581 0.62774 1.00727 -0.00100
C 	C 	0.95242 0.66566 0.89481 -0.03300
C 	C 	0.95363 0.62308 0.78390 -0.10300
C 	C 	0.99551 0.47055 0.60956 -0.01400
H 	H 	0.94343 0.34960 0.39258 0.06900
H 	H 	0.87603 0.47131 0.69183 0.08900
H 	H 	0.96215 0.43811 0.90234 0.06000
H 	H 	0.96673 0.44413 1.12769 0.04600
H 	H 	0.96534 0.52283 0.31926 0.06600
H 	H 	0.95892 0.66739 1.31361 0.07100
H 	H 	0.95329 0.73465 1.11647 0.04400
H 	H 	0.95026 0.72904 0.89370 -0.00800
H 	H 	0.03054 0.49522 0.63691 0.05700
