data_crystal

_cell_length_a 38.86890
_cell_length_b 15.84000
_cell_length_c 8.11190
_cell_angle_alpha 88.72450
_cell_angle_beta  104.08950
_cell_angle_gamma 81.94290

_symmetry_space_group_name_	'P 1'
_symmetry_space_group_name_H-M	'P 1'

loop_
_symmetry_equiv_pos_as_xyz
  x,y,z

loop_
_atom_site_label
_atom_site_type_symbol
_atom_site_fract_x
_atom_site_fract_y
_atom_site_fract_z
_atom_site_charge
Eu	Eu	0.37264 0.66551 -0.16646 1.81300
O 	O 	0.30366 0.78421 -0.29831 -0.29300
C 	C 	0.33857 0.50289 -0.17259 0.30500
O 	O 	0.43109 0.71386 -0.36093 -0.25900
O 	O 	0.38482 0.78792 -0.27904 -0.40800
O 	O 	0.44835 0.57682 -0.08080 -0.31500
O 	O 	0.32844 0.53319 -0.31884 -0.34000
O 	O 	0.36157 0.54307 -0.05073 -0.44300
O 	O 	0.33560 0.74455 -0.02973 -0.40000
C 	C 	0.30860 0.79672 -0.14727 0.24800
O 	O 	0.41954 0.67184 0.06178 -0.42200
C 	C 	0.45062 0.62643 0.03313 0.32000
C 	C 	0.42009 0.77577 -0.29200 0.22900
Eu	Eu	0.86953 0.73152 0.94229 1.81000
O 	O 	0.82603 0.90066 0.97227 -0.30600
C 	C 	0.79936 0.67506 0.97768 0.31100
O 	O 	0.90164 0.87787 1.18895 -0.27700
O 	O 	0.92380 0.77661 1.03387 -0.43200
O 	O 	0.92164 0.56256 0.93551 -0.27000
O 	O 	0.81723 0.67217 1.12408 -0.32400
O 	O 	0.81502 0.68841 0.84428 -0.44000
O 	O 	0.85056 0.85037 0.76199 -0.43200
C 	C 	0.83254 0.91504 0.83556 0.31100
O 	O 	0.89114 0.66470 0.73525 -0.40900
C 	C 	0.92100 0.60503 0.80783 0.23800
C 	C 	0.91930 0.85985 1.08550 0.29700
Eu	Eu	0.12008 0.30005 0.23186 1.77800
O 	O 	0.15441 0.13044 0.13801 -0.30400
C 	C 	0.18362 0.37653 0.14895 0.24500
O 	O 	0.05136 0.29547 0.36054 -0.26900
O 	O 	0.08478 0.19700 0.24409 -0.40700
O 	O 	0.09127 0.46994 0.33573 -0.31300
O 	O 	0.19050 0.30156 0.12262 -0.27100
O 	O 	0.15383 0.40507 0.20972 -0.41300
O 	O 	0.16988 0.20728 0.36838 -0.40900
C 	C 	0.17679 0.14002 0.26793 0.32400
O 	O 	0.11553 0.34626 0.49158 -0.41200
C 	C 	0.09930 0.43118 0.47504 0.31700
C 	C 	0.05351 0.22836 0.29142 0.24000
Eu	Eu	0.60448 0.23299 1.01224 1.81500
O 	O 	0.66126 0.09424 0.92962 -0.26500
C 	C 	0.67375 0.30985 1.08483 0.24200
O 	O 	0.59403 0.08956 1.23456 -0.32700
O 	O 	0.57277 0.12225 0.95177 -0.42800
O 	O 	0.56160 0.41146 1.06085 -0.27000
O 	O 	0.68484 0.23501 1.12852 -0.27100
O 	O 	0.63793 0.34147 1.07085 -0.40300
O 	O 	0.62576 0.20869 0.77642 -0.40400
C 	C 	0.65638 0.14793 0.81308 0.24500
O 	O 	0.55877 0.32471 0.84165 -0.40100
C 	C 	0.55486 0.40479 0.90721 0.24600
C 	C 	0.58090 0.06538 1.09386 0.30200
C 	C 	0.32677 0.42133 -0.12368 -0.14100
N 	N 	0.28920 0.43493 -0.11282 -0.10000
C 	C 	0.28366 0.49356 0.01888 -0.09800
C 	C 	0.24858 0.48650 0.05784 0.19900
N 	N 	0.22251 0.55334 0.04897 -0.09800
N 	N 	0.19554 0.52154 0.08561 -0.07600
C 	C 	0.20653 0.43692 0.11352 0.11200
O 	O 	0.23941 0.41308 0.09719 -0.22000
H 	H 	0.34451 0.39309 -0.00031 0.08200
H 	H 	0.32977 0.37442 -0.22111 0.07800
H 	H 	0.27274 0.46052 -0.23063 0.09000
H 	H 	0.30510 0.47656 0.13824 0.07200
H 	H 	0.28389 0.56059 -0.02434 0.06200
C 	C 	0.82157 1.00267 0.74933 -0.14000
N 	N 	0.78273 1.02699 0.72076 -0.09600
C 	C 	0.77234 0.11885 0.67824 -0.09800
C 	C 	0.73321 0.14359 0.66743 0.20200
N 	N 	0.71098 0.19945 0.54782 -0.09800
N 	N 	0.67955 0.20623 0.58418 -0.08600
C 	C 	0.68422 0.15415 0.72301 0.11500
O 	O 	0.71737 0.11434 0.77841 -0.21500
H 	H 	0.82966 1.00472 0.62692 0.07500
H 	H 	0.83608 1.04694 0.83637 0.07400
H 	H 	0.77029 0.99500 0.61622 0.08600
H 	H 	0.78739 1.15563 0.77927 0.07300
H 	H 	0.77815 0.13667 0.55525 0.06700
C 	C 	0.21234 0.08274 0.31774 -0.14100
N 	N 	0.21880 0.03199 0.17562 -0.09600
C 	C 	0.25635 0.99066 0.21376 -0.10900
C 	C 	0.26432 0.94897 0.06052 0.20500
N 	N 	0.25213 0.98455 -0.09880 -0.09400
N 	N 	0.26623 0.93187 -0.19644 -0.07800
C 	C 	0.28673 0.86747 -0.09064 0.11500
O 	O 	0.28644 0.87667 0.07040 -0.22700
H 	H 	0.21308 0.04030 0.43024 0.08500
H 	H 	0.23331 0.12458 0.35531 0.09000
H 	H 	0.20257 -0.01621 0.16291 0.09500
H 	H 	0.27478 0.03880 0.24866 0.07700
H 	H 	0.26195 0.94194 0.32192 0.08000
C 	C 	0.76067 0.66287 0.93996 -0.14100
N 	N 	0.75766 0.57369 0.97983 -0.10000
C 	C 	0.72071 0.55777 0.91003 -0.10500
C 	C 	0.71701 0.46836 0.95886 0.20200
N 	N 	0.73984 0.39959 0.93909 -0.09600
N 	N 	0.72742 0.33303 0.98945 -0.07200
C 	C 	0.69774 0.36454 1.03853 0.12100
O 	O 	0.69023 0.44861 1.01892 -0.22600
H 	H 	0.74834 0.68112 0.80279 0.07500
H 	H 	0.74658 0.70628 1.01667 0.08000
H 	H 	0.77422 0.53458 0.91896 0.08900
H 	H 	0.70155 0.60315 0.95871 0.07500
H 	H 	0.71362 0.56597 0.76868 0.06400
C 	C 	0.48656 0.64243 0.13255 -0.14300
N 	N 	0.49141 0.61830 0.31310 -0.10000
C 	C 	0.52951 0.59072 0.39497 -0.10600
C 	C 	0.53383 0.55925 0.57440 0.20600
N 	N 	0.52929 0.61077 0.69891 -0.09300
N 	N 	0.53601 0.56038 0.83759 -0.07500
C 	C 	0.54395 0.48078 0.78990 0.12100
O 	O 	0.54284 0.47788 0.62672 -0.22900
H 	H 	0.48853 0.71115 0.11296 0.07800
H 	H 	0.50723 0.60496 0.07927 0.09200
H 	H 	0.48254 0.67240 0.37244 0.10100
H 	H 	0.54051 0.53690 0.32740 0.08100
H 	H 	0.54518 0.64431 0.39265 0.06400
C 	C 	0.93356 0.92777 1.00148 -0.13300
N 	N 	0.95625 0.97499 1.12741 -0.09700
C 	C 	0.97000 0.03889 1.03682 -0.10500
C 	C 	0.98827 0.09889 1.15583 0.21100
N 	N 	0.97148 0.14965 0.25189 -0.10400
N 	N 	0.99395 0.20175 0.31819 -0.07300
C 	C 	0.02328 0.18017 0.25971 0.10500
O 	O 	0.02055 0.11662 1.15752 -0.22000
H 	H 	0.91044 0.97173 0.92128 0.06300
H 	H 	0.94945 0.89651 0.91676 0.07900
H 	H 	0.93997 1.00701 0.19919 0.08700
H 	H 	0.98941 0.00616 0.96968 0.07900
H 	H 	0.94773 0.07805 0.94060 0.06600
C 	C 	0.57437 -0.02529 1.07390 -0.12700
N 	N 	0.53583 -0.02833 1.01168 -0.09300
C 	C 	0.53006 -0.11643 -0.02479 -0.11600
C 	C 	0.49109 0.87855 -0.09562 0.19900
N 	N 	0.46428 0.93085 -0.05607 -0.09700
N 	N 	0.43459 0.90107 -0.12826 -0.07600
C 	C 	0.44480 0.83253 -0.20874 0.11600
O 	O 	0.47982 0.81665 -0.19080 -0.23500
H 	H 	0.58525 -0.06269 0.19855 0.06700
H 	H 	0.58920 -0.05283 0.98160 0.07400
H 	H 	0.52378 -0.00997 0.11040 0.08400
H 	H 	0.54476 0.85962 0.88001 0.08000
H 	H 	0.54008 -0.15907 0.09333 0.06300
C 	C 	0.09102 0.47431 0.62631 -0.13400
N 	N 	0.05218 0.50107 0.59498 -0.10600
C 	C 	0.04327 0.53426 0.74899 -0.09900
C 	C 	0.00419 0.56912 0.71341 0.20000
N 	N 	-0.01198 0.63187 0.59424 -0.09900
N 	N 	-0.04513 0.64998 0.60917 -0.08200
C 	C 	0.95252 0.59765 0.73712 0.11700
O 	O 	0.98288 0.54689 0.80568 -0.22800
H 	H 	0.10533 0.53064 0.64852 0.07500
H 	H 	0.10085 0.42873 0.74006 0.05900
H 	H 	0.04496 0.55093 0.50051 0.09700
H 	H 	0.04969 0.48219 0.85071 0.05300
H 	H 	0.05886 0.58648 0.79540 0.06500
