data_crystal

_cell_length_a 47.76400
_cell_length_b 28.15970
_cell_length_c 17.39570
_cell_angle_alpha 89.93070
_cell_angle_beta  89.44930
_cell_angle_gamma 87.05230

_symmetry_space_group_name_	'P 1'
_symmetry_space_group_name_H-M	'P 1'

loop_
_symmetry_equiv_pos_as_xyz
  x,y,z

loop_
_atom_site_label
_atom_site_type_symbol
_atom_site_fract_x
_atom_site_fract_y
_atom_site_fract_z
_atom_site_charge
Eu	Eu	0.39075 0.74951 0.21773 1.86700
O 	O 	0.33973 0.78827 0.15519 -0.30400
C 	C 	0.34903 0.67232 0.20035 0.31900
O 	O 	0.39450 0.79008 0.06535 -0.31700
O 	O 	0.41657 0.80967 0.17328 -0.41900
O 	O 	0.45351 0.73685 0.24403 -0.26500
O 	O 	0.35003 0.69166 0.13780 -0.31000
O 	O 	0.36472 0.68915 0.26031 -0.41700
O 	O 	0.35882 0.80369 0.26927 -0.41400
C 	C 	0.33722 0.80894 0.21648 0.27800
O 	O 	0.41696 0.74087 0.32582 -0.41700
C 	C 	0.44333 0.72238 0.30348 0.29200
C 	C 	0.41081 0.81600 0.09572 0.28300
Eu	Eu	0.89415 0.74226 0.80636 1.87700
O 	O 	0.85328 0.81430 0.86066 -0.32300
C 	C 	0.86146 0.65351 0.84401 0.32100
O 	O 	0.91494 0.79730 0.94101 -0.31700
O 	O 	0.92888 0.79443 0.81702 -0.41300
O 	O 	0.92560 0.65119 0.76998 -0.29400
O 	O 	0.88044 0.65232 0.89036 -0.28900
O 	O 	0.85858 0.69181 0.79371 -0.42900
O 	O 	0.86846 0.79879 0.74077 -0.38800
C 	C 	0.85194 0.82514 0.79288 0.32600
O 	O 	0.91373 0.71388 0.69455 -0.41000
C 	C 	0.92589 0.66848 0.70577 0.28200
C 	C 	0.92912 0.81416 0.89024 0.32300
Eu	Eu	0.11478 0.25616 0.21571 1.86500
O 	O 	0.17365 0.24229 0.31561 -0.22800
C 	C 	0.16648 0.30728 0.18385 0.29000
O 	O 	0.11968 0.19140 0.09377 -0.34000
O 	O 	0.08540 0.19855 0.18237 -0.42200
O 	O 	0.06289 0.31648 0.18839 -0.29600
O 	O 	0.16424 0.27649 0.13545 -0.33100
O 	O 	0.14543 0.31356 0.23915 -0.42200
O 	O 	0.13238 0.20706 0.31081 -0.41500
C 	C 	0.16154 0.20538 0.31458 0.29900
O 	O 	0.08303 0.29162 0.29862 -0.42300
C 	C 	0.06399 0.32071 0.25795 0.31800
C 	C 	0.09755 0.17699 0.11744 0.28000
Eu	Eu	0.60497 0.26125 0.76801 1.83900
O 	O 	0.62994 0.16496 0.80150 -0.29200
C 	C 	0.65059 0.33324 0.80610 0.28800
O 	O 	0.58029 0.21286 0.91212 -0.31600
O 	O 	0.57148 0.20717 0.78539 -0.40900
O 	O 	0.57105 0.34972 0.75382 -0.32200
O 	O 	0.63905 0.33056 0.86859 -0.30800
O 	O 	0.63880 0.31328 0.74185 -0.43500
O 	O 	0.63027 0.20838 0.69291 -0.41300
C 	C 	0.64052 0.17098 0.73848 0.28300
O 	O 	0.58041 0.29210 0.66661 -0.41700
C 	C 	0.56829 0.33614 0.68797 0.28600
C 	C 	0.56918 0.19144 0.86084 0.33200
C 	C 	0.33136 0.63140 0.21128 -0.10000
C 	C 	0.30530 0.63164 0.17449 -0.03000
C 	C 	0.28906 0.59180 0.17701 0.14700
Cl	Cl	0.25736 0.59374 0.12587 -0.30200
C 	C 	0.29902 0.55057 0.21603 -0.02200
C 	C 	0.28480 0.50556 0.20932 0.08600
C 	C 	0.29845 0.46726 0.16876 -0.06800
C 	C 	0.28484 0.42513 0.15605 0.01300
C 	C 	0.25781 0.42239 0.18545 -0.04800
C 	C 	0.24435 0.45864 0.22658 0.18500
C 	C 	0.25746 0.50102 0.23952 -0.11600
O 	O 	0.21843 0.44901 0.24782 -0.23100
C 	C 	0.21548 0.40592 0.21896 0.15400
C 	C 	0.19139 0.37985 0.22288 -0.06500
C 	C 	0.19157 0.33564 0.18420 -0.02500
C 	C 	0.21606 0.31856 0.14397 -0.00300
C 	C 	0.24012 0.34490 0.14197 -0.02000
C 	C 	0.23896 0.38828 0.17998 -0.01400
C 	C 	0.32461 0.55076 0.25484 -0.08600
C 	C 	0.34067 0.59091 0.25353 0.19500
Cl	Cl	0.37327 0.58728 0.30030 -0.30800
H 	H 	0.29780 0.66269 0.14237 0.08300
H 	H 	0.31935 0.47066 0.14538 0.06800
H 	H 	0.29489 0.39618 0.12349 0.04400
H 	H 	0.24665 0.52994 0.27045 0.10400
H 	H 	0.17292 0.39401 0.25332 0.08500
H 	H 	0.21652 0.28479 0.11413 0.07100
H 	H 	0.25875 0.33211 0.11093 0.05600
H 	H 	0.33250 0.51897 0.28435 0.08900
C 	C 	0.83314 0.86592 0.76822 -0.09000
C 	C 	0.82217 0.89749 0.82486 -0.03200
C 	C 	0.80351 0.93540 0.80615 0.14900
Cl	Cl	0.79169 0.97401 0.88072 -0.30200
C 	C 	0.79525 0.94251 0.72929 -0.02200
C 	C 	0.77410 0.98039 0.70825 0.08800
C 	C 	0.78043 0.01499 0.65221 -0.07100
C 	C 	0.76089 0.05248 0.63494 0.01300
C 	C 	0.73535 0.05399 0.67436 -0.05000
C 	C 	0.72871 0.02024 0.72793 0.18600
C 	C 	0.74757 0.98250 0.74501 -0.11700
O 	O 	0.70414 0.02936 0.76219 -0.23300
C 	C 	0.69499 0.06976 0.72975 0.15400
C 	C 	0.67058 0.09608 0.74985 -0.06600
C 	C 	0.66472 0.14020 0.71301 -0.03200
C 	C 	0.68334 0.15614 0.65552 -0.01300
C 	C 	0.70798 0.12907 0.63639 -0.02600
C 	C 	0.71314 0.08628 0.67518 -0.01700
C 	C 	0.80681 0.91224 0.67201 -0.08200
C 	C 	0.82549 0.87407 0.69063 0.19600
Cl	Cl	0.83729 0.83662 0.61465 -0.28600
H 	H 	0.82813 0.89280 0.88445 0.09000
H 	H 	0.80069 0.01351 0.62356 0.06900
H 	H 	0.76585 0.07979 0.59389 0.04200
H 	H 	0.74209 0.95618 0.78732 0.10700
H 	H 	0.65695 0.08321 0.79456 0.09200
H 	H 	0.67931 0.19017 0.62759 0.05100
H 	H 	0.72271 0.14169 0.59431 0.05000
H 	H 	0.80068 0.91760 0.61263 0.08900
C 	C 	0.17743 0.15885 0.31884 -0.09700
C 	C 	0.16376 0.11945 0.34746 -0.03500
C 	C 	0.17704 0.07402 0.34742 0.14500
Cl	Cl	0.15873 0.02680 0.38667 -0.30800
C 	C 	0.20448 0.06713 0.31755 -0.02300
C 	C 	0.21777 0.01897 0.30576 0.08400
C 	C 	0.20376 0.98545 0.26131 -0.05800
C 	C 	0.21703 0.94155 0.24167 0.01100
C 	C 	0.24426 0.93233 0.26706 -0.04900
C 	C 	0.25832 0.96394 0.31063 0.18400
C 	C 	0.24546 0.00788 0.33101 -0.12800
O 	O 	0.28469 0.94930 0.32457 -0.23700
C 	C 	0.28735 0.90771 0.28849 0.15100
C 	C 	0.31192 0.87881 0.28075 -0.06800
C 	C 	0.31146 0.83829 0.23286 -0.03200
C 	C 	0.28622 0.82713 0.19607 -0.01100
C 	C 	0.26171 0.85599 0.20597 -0.02500
C 	C 	0.26318 0.89591 0.25223 -0.01600
C 	C 	0.21859 0.10667 0.29155 -0.08600
C 	C 	0.20541 0.15220 0.29177 0.19000
Cl	Cl	0.22422 0.19870 0.25188 -0.31200
H 	H 	0.14252 0.12387 0.36969 0.08500
H 	H 	0.18294 -0.00592 0.23961 0.07700
H 	H 	0.20667 0.91641 0.20609 0.04600
H 	H 	0.25685 0.03328 0.36341 0.09200
H 	H 	0.33108 0.88877 0.30782 0.08100
H 	H 	0.28565 0.79636 0.15891 0.06000
H 	H 	0.24261 0.84813 0.17666 0.05400
H 	H 	0.23961 0.10180 0.26777 0.08600
C 	C 	0.84144 0.61504 0.84093 -0.09600
C 	C 	0.81414 0.62599 0.81433 -0.03200
C 	C 	0.79472 0.59070 0.80775 0.14800
Cl	Cl	0.76108 0.60670 0.77259 -0.30000
C 	C 	0.80258 0.54332 0.82654 -0.02300
C 	C 	0.78378 0.50443 0.81175 0.08600
C 	C 	0.78998 0.47299 0.74968 -0.06900
C 	C 	0.77200 0.43675 0.73203 0.01200
C 	C 	0.74825 0.43275 0.77806 -0.05000
C 	C 	0.74205 0.46240 0.83942 0.18400
C 	C 	0.75958 0.49890 0.85763 -0.11800
O 	O 	0.71825 0.45295 0.87506 -0.23500
C 	C 	0.70916 0.41672 0.83516 0.15000
C 	C 	0.68422 0.39396 0.84818 -0.06500
C 	C 	0.67712 0.35749 0.79707 -0.04300
C 	C 	0.69549 0.34450 0.73510 -0.00900
C 	C 	0.72068 0.36722 0.72395 -0.03000
C 	C 	0.72670 0.40317 0.77500 -0.01500
C 	C 	0.82965 0.53222 0.85368 -0.08500
C 	C 	0.84901 0.56752 0.86156 0.19300
Cl	Cl	0.88291 0.54958 0.89282 -0.29500
H 	H 	0.80786 0.66215 0.79826 0.08600
H 	H 	0.80847 0.47727 0.71435 0.06800
H 	H 	0.77642 0.41311 0.68393 0.04100
H 	H 	0.75447 0.52259 0.90528 0.10000
H 	H 	0.67044 0.40505 0.89531 0.08100
H 	H 	0.69037 0.31661 0.69559 0.04700
H 	H 	0.73472 0.35737 0.67673 0.04900
H 	H 	0.83588 0.49569 0.86761 0.08700
C 	C 	0.45720 0.68200 0.34595 -0.09200
C 	C 	0.44111 0.65607 0.39788 -0.03500
C 	C 	0.45195 0.61368 0.43076 0.15200
Cl	Cl	0.43000 0.58115 0.49069 -0.29000
C 	C 	0.47932 0.59656 0.41205 -0.02500
C 	C 	0.49056 0.54968 0.43853 0.08900
C 	C 	0.49531 0.51257 0.38428 -0.06900
C 	C 	0.50705 0.46811 0.40701 0.01200
C 	C 	0.51393 0.46222 0.48407 -0.05000
C 	C 	0.50964 0.49789 0.53762 0.18500
C 	C 	0.49775 0.54224 0.51635 -0.11900
O 	O 	0.51869 0.48559 0.60709 -0.23600
C 	C 	0.52889 0.44124 0.59719 0.15200
C 	C 	0.54199 0.41251 0.65290 -0.06900
C 	C 	0.55285 0.36657 0.63160 -0.03600
C 	C 	0.54959 0.35052 0.55506 -0.01100
C 	C 	0.53629 0.38007 0.49985 -0.02600
C 	C 	0.52641 0.42517 0.52308 -0.01700
C 	C 	0.49587 0.62319 0.36311 -0.08400
C 	C 	0.48526 0.66571 0.33058 0.18900
Cl	Cl	0.50815 0.69662 0.27083 -0.29200
H 	H 	0.41958 0.66757 0.41060 0.08900
H 	H 	0.49004 0.51836 0.32446 0.06900
H 	H 	0.51096 0.43977 0.36572 0.04200
H 	H 	0.49475 0.57045 0.55835 0.10100
H 	H 	0.54415 0.42594 0.71072 0.08400
H 	H 	0.55760 0.31544 0.53784 0.05900
H 	H 	0.53409 0.36823 0.44115 0.05200
H 	H 	0.51709 0.61034 0.34921 0.08700
C 	C 	0.94699 0.85425 0.90718 -0.09900
C 	C 	0.95943 0.85689 0.97983 -0.02800
C 	C 	0.97782 0.89250 0.99671 0.14100
Cl	Cl	0.99467 0.89029 0.08633 -0.29500
C 	C 	0.98364 0.92704 0.94086 -0.01800
C 	C 	1.00481 0.96287 0.95334 0.07900
C 	C 	0.02735 0.96556 0.90010 -0.07000
C 	C 	0.04793 -0.00131 0.90990 0.01700
C 	C 	0.04525 0.02884 0.97304 -0.06800
C 	C 	0.02346 0.02753 0.02511 0.19100
C 	C 	1.00277 0.99458 0.01663 -0.10900
O 	O 	0.02482 0.05978 0.08058 -0.22900
C 	C 	0.04804 0.08178 0.06312 0.14400
C 	C 	0.05919 0.11915 0.10389 -0.06000
C 	C 	0.08448 0.13778 0.07677 -0.03900
C 	C 	0.09762 0.11839 0.00932 0.00200
C 	C 	0.08600 0.08119 0.96928 -0.04800
C 	C 	0.06127 0.06396 -0.00206 0.00700
C 	C 	0.97040 0.92546 0.86925 -0.08700
C 	C 	0.95226 0.88958 0.85203 0.19600
Cl	Cl	0.93582 0.89162 0.76176 -0.29800
H 	H 	0.95560 0.83011 1.02289 0.08200
H 	H 	0.02903 0.94166 0.85133 0.06800
H 	H 	0.06520 0.00071 0.86947 0.04100
H 	H 	0.98556 0.99375 0.05750 0.10800
H 	H 	0.04860 0.13317 0.15493 0.08600
H 	H 	0.11695 0.13204 -0.01242 0.05600
H 	H 	0.09605 0.06640 0.91801 0.05600
H 	H 	0.97435 0.95226 0.82626 0.08800
C 	C 	0.55277 0.14952 0.87846 -0.10200
C 	C 	0.53642 0.14902 0.94598 -0.02800
C 	C 	0.51899 0.11159 0.96152 0.14000
Cl	Cl	0.49656 0.11671 0.04238 -0.30000
C 	C 	0.51839 0.07289 0.91018 -0.01900
C 	C 	0.49915 0.03373 0.92141 0.08100
C 	C 	0.48116 0.02180 0.86067 -0.07500
C 	C 	0.46279 0.98482 0.86898 0.02200
C 	C 	0.46291 0.96051 0.93854 -0.07100
C 	C 	0.48018 0.97116 -0.00173 0.19600
C 	C 	0.49879 0.00760 -0.00898 -0.11500
O 	O 	0.47673 0.94395 0.05974 -0.23100
C 	C 	0.45684 0.91560 0.03826 0.14400
C 	C 	0.44517 0.88026 0.08290 -0.06100
C 	C 	0.42394 0.85347 0.05046 -0.03900
C 	C 	0.41517 0.86296 -0.02609 0.00200
C 	C 	0.42709 0.89877 0.93028 -0.04800
C 	C 	0.44777 0.92424 -0.03548 0.00800
C 	C 	0.53549 0.07267 0.84410 -0.08900
C 	C 	0.55240 0.11050 0.82765 0.19800
Cl	Cl	0.57335 0.10646 0.74375 -0.30400
H 	H 	0.53632 0.17880 0.98535 0.07900
H 	H 	0.48126 0.04148 0.80716 0.06700
H 	H 	0.44895 0.97582 0.82291 0.03900
H 	H 	0.51261 0.01533 0.03784 0.10800
H 	H 	0.45240 0.87384 0.14097 0.08900
H 	H 	0.39897 0.84286 -0.05189 0.05800
H 	H 	0.42033 0.90624 0.87210 0.05600
H 	H 	0.53551 0.04291 0.80462 0.08700
C 	C 	0.04669 0.35825 0.29835 -0.09700
C 	C 	0.05723 0.37811 0.36553 -0.03200
C 	C 	0.04286 0.41625 0.40260 0.14600
Cl	Cl	0.05870 0.44156 0.48279 -0.30200
C 	C 	0.01729 0.43510 0.37281 -0.02100
C 	C 	0.00230 0.47734 0.40718 0.08500
C 	C 	-0.00352 0.51821 0.36112 -0.06900
C 	C 	0.98293 0.55921 0.39264 0.01300
C 	C 	0.97540 0.55804 0.47002 -0.04800
C 	C 	0.98047 0.51860 0.51556 0.18500
C 	C 	-0.00619 0.47742 0.48532 -0.11600
O 	O 	0.97184 0.52500 0.58774 -0.23200
C 	C 	0.96114 0.56946 0.58779 0.15500
C 	C 	0.94930 0.59387 0.65083 -0.07000
C 	C 	0.93890 0.64149 0.64066 -0.02800
C 	C 	0.94091 0.66316 0.56723 -0.01100
C 	C 	0.95299 0.63793 0.50460 -0.02200
C 	C 	0.96278 0.59124 0.51722 -0.01700
C 	C 	0.00639 0.41464 0.30675 -0.08500
C 	C 	0.02069 0.37641 0.26975 0.19500
Cl	Cl	0.00466 0.35169 0.18938 -0.29200
H 	H 	0.07727 0.36504 0.38801 0.08200
H 	H 	0.00284 0.51840 0.30119 0.06900
H 	H 	0.97875 0.59067 0.35796 0.04500
H 	H 	-0.00237 0.44644 0.52139 0.10600
H 	H 	0.94814 0.57623 0.70603 0.09400
H 	H 	0.93319 0.69955 0.55840 0.06700
H 	H 	0.95461 0.65435 0.44856 0.05500
H 	H 	-0.01341 0.42853 0.28382 0.08800
