data_crystal

_cell_length_a 39.32130
_cell_length_b 17.82070
_cell_length_c 6.84160
_cell_angle_alpha 83.04340
_cell_angle_beta  83.66420
_cell_angle_gamma 89.77200

_symmetry_space_group_name_	'P 1'
_symmetry_space_group_name_H-M	'P 1'

loop_
_symmetry_equiv_pos_as_xyz
  x,y,z

loop_
_atom_site_label
_atom_site_type_symbol
_atom_site_fract_x
_atom_site_fract_y
_atom_site_fract_z
_atom_site_charge
Eu	Eu	0.39348 0.72132 0.06958 1.82000
O 	O 	0.32502 0.78065 0.04633 -0.32700
C 	C 	0.35671 0.57016 0.10391 0.32300
O 	O 	0.45326 0.81873 -0.15775 -0.31600
O 	O 	0.39949 0.84696 -0.03954 -0.44600
O 	O 	0.46074 0.64285 0.08136 -0.32100
O 	O 	0.34341 0.61063 -0.02282 -0.33500
O 	O 	0.38507 0.59608 0.18082 -0.43800
O 	O 	0.35351 0.75145 0.31460 -0.43300
C 	C 	0.32550 0.78210 0.22551 0.29700
O 	O 	0.43592 0.72915 0.26726 -0.43700
C 	C 	0.46353 0.68481 0.20678 0.33000
C 	C 	0.43244 0.86757 -0.12398 0.30300
Eu	Eu	0.86942 0.73539 0.81636 1.83800
O 	O 	0.81709 0.85798 0.81964 -0.32200
C 	C 	0.81174 0.71511 1.15368 0.31200
O 	O 	0.93812 0.80090 0.84532 -0.33100
O 	O 	0.90697 0.80304 0.58603 -0.45000
O 	O 	0.92268 0.61801 0.86888 -0.32300
O 	O 	0.82514 0.76934 1.20996 -0.29200
O 	O 	0.83105 0.66696 1.04121 -0.44000
O 	O 	0.82603 0.76313 0.62852 -0.42600
C 	C 	0.80703 0.82305 0.69401 0.32600
O 	O 	0.88142 0.63031 0.66476 -0.43300
C 	C 	0.90904 0.59261 0.73929 0.30600
C 	C 	0.93515 0.82447 0.67310 0.32600
Eu	Eu	0.12097 0.20357 0.15381 1.78000
O 	O 	0.14994 0.04035 0.17245 -0.31200
C 	C 	0.17349 0.33119 0.12614 0.28500
O 	O 	0.06341 0.21216 -0.09959 -0.31400
O 	O 	0.09132 0.11198 0.03441 -0.42700
O 	O 	0.07126 0.33907 0.12770 -0.29200
O 	O 	0.16384 0.35387 -0.03421 -0.30000
O 	O 	0.15113 0.29315 0.27389 -0.43900
O 	O 	0.13643 0.11920 0.40520 -0.44000
C 	C 	0.15371 0.05787 0.33484 0.31600
O 	O 	0.07267 0.23192 0.34219 -0.42600
C 	C 	0.05630 0.29553 0.26061 0.33300
C 	C 	0.06878 0.14471 -0.09359 0.29300
Eu	Eu	0.62860 0.27180 0.98280 1.80100
O 	O 	0.69253 0.17265 0.96955 -0.30800
C 	C 	0.67161 0.37067 1.19716 0.29300
O 	O 	0.55114 0.28182 1.11301 -0.31400
O 	O 	0.58304 0.19673 0.95510 -0.45800
O 	O 	0.60510 0.42740 1.02338 -0.32400
O 	O 	0.65939 0.32662 1.33835 -0.31000
O 	O 	0.67368 0.34878 1.00741 -0.42400
O 	O 	0.65860 0.21544 0.73629 -0.42400
C 	C 	0.67991 0.16133 0.82077 0.28400
O 	O 	0.60895 0.36257 0.76098 -0.43000
C 	C 	0.60084 0.42727 0.85008 0.31000
C 	C 	0.55256 0.23386 0.99972 0.32400
C 	C 	0.34295 0.49592 0.17183 -0.13400
C 	C 	0.33032 0.43437 0.22610 0.09700
C 	C 	0.31393 0.36032 0.29318 -0.17200
C 	C 	0.27778 0.35414 0.23737 0.08600
C 	C 	0.25900 0.28771 0.30682 -0.10000
C 	C 	0.22517 0.28005 0.26588 0.02900
C 	C 	0.20951 0.33924 0.15659 -0.10600
C 	C 	0.22844 0.40426 0.07685 0.03500
C 	C 	0.26235 0.41183 0.11650 -0.09500
H 	H 	0.31318 0.35052 0.45582 0.07000
H 	H 	0.32994 0.31590 0.23023 0.06500
H 	H 	0.27036 0.24163 0.39550 0.04900
H 	H 	0.21101 0.22829 0.32347 0.00500
H 	H 	0.21672 0.45009 -0.00940 0.03700
H 	H 	0.27593 0.46367 0.05595 0.06500
C 	C 	0.77519 0.84319 0.61710 -0.12400
C 	C 	0.74824 0.86104 0.55801 0.10000
C 	C 	0.71530 0.88453 0.49032 -0.17200
C 	C 	0.70406 0.95587 0.57510 0.09000
C 	C 	0.70296 1.02435 0.44998 -0.09400
C 	C 	0.69415 0.09112 0.52928 0.02700
C 	C 	0.68684 0.09057 0.73463 -0.09900
C 	C 	0.68672 0.02186 0.85931 0.02900
C 	C 	0.69501 -0.04513 0.77981 -0.09900
H 	H 	0.69594 0.83927 0.53965 0.06100
H 	H 	0.71848 0.89346 0.32575 0.06800
H 	H 	0.71023 1.02635 0.29235 0.05900
H 	H 	0.69418 0.14384 0.43171 0.03200
H 	H 	0.67949 0.02004 1.01727 0.01700
H 	H 	0.69483 -0.09779 0.87737 0.05100
C 	C 	0.17526 0.01329 0.45948 -0.14200
C 	C 	0.19402 -0.02370 0.56064 0.09200
C 	C 	0.21782 0.93253 0.67915 -0.16700
C 	C 	0.24510 0.89293 0.55665 0.08400
C 	C 	0.27472 0.86829 0.64236 -0.09400
C 	C 	0.30056 0.83101 0.53654 0.03600
C 	C 	0.29743 0.81785 0.34115 -0.09600
C 	C 	0.26759 0.84102 0.25561 0.02900
C 	C 	0.24172 0.87810 0.36181 -0.08900
H 	H 	0.20324 0.89011 0.78789 0.07500
H 	H 	0.23020 0.97266 0.76269 0.06600
H 	H 	0.27800 0.87903 0.79140 0.06100
H 	H 	0.32330 0.81374 0.60586 0.03400
H 	H 	0.26428 0.83067 0.10610 0.03100
H 	H 	0.21906 -0.10534 0.29110 0.05600
C 	C 	0.77578 0.70064 1.20774 -0.12000
C 	C 	0.74554 0.69015 1.25124 0.09400
C 	C 	0.70863 0.67774 1.29797 -0.16600
C 	C 	0.69951 0.59769 1.27332 0.08400
C 	C 	0.70538 0.57198 1.08631 -0.09100
C 	C 	0.69686 0.49780 1.06225 0.03000
C 	C 	0.68199 0.44810 1.22378 -0.08700
C 	C 	0.67601 0.47380 1.41054 0.02900
C 	C 	0.68446 0.54825 1.43432 -0.09000
H 	H 	0.69532 0.71706 1.19275 0.06200
H 	H 	0.70041 0.69147 1.45032 0.06400
H 	H 	0.71684 0.60942 0.95957 0.05500
H 	H 	0.70185 0.47957 0.91694 0.03700
H 	H 	0.66421 0.43734 1.53712 0.04000
H 	H 	0.67939 0.56715 1.57917 0.05500
C 	C 	0.49559 0.68994 0.28786 -0.13400
C 	C 	0.52288 0.69586 0.34939 0.10100
C 	C 	0.55638 0.70390 0.41947 -0.17200
C 	C 	0.56647 0.63078 0.53247 0.08600
C 	C 	0.56244 0.62026 0.74091 -0.09400
C 	C 	0.57233 0.55257 0.84301 0.03500
C 	C 	0.58742 0.49524 0.74016 -0.10000
C 	C 	0.59070 0.50478 0.53245 0.03200
C 	C 	0.58042 0.57208 0.42921 -0.09200
H 	H 	0.55495 0.75017 0.51475 0.06900
H 	H 	0.57579 0.71986 0.29088 0.06300
H 	H 	0.55169 0.66448 0.82421 0.06000
H 	H 	0.56890 0.54591 1.00237 0.03500
H 	H 	0.60189 0.46107 0.44932 0.03900
H 	H 	0.58383 0.57975 0.26890 0.05600
C 	C 	0.96074 0.87424 0.56138 -0.13400
C 	C 	-0.01783 0.91749 0.47163 0.10400
C 	C 	0.00778 0.97193 0.36590 -0.18000
C 	C 	0.02299 1.01539 0.51039 0.10700
C 	C 	0.04474 -0.02006 0.64196 -0.09500
C 	C 	0.05931 0.02148 -0.22552 0.02600
C 	C 	0.05204 0.09870 -0.22303 -0.09600
C 	C 	0.02918 0.13276 -0.34988 0.04000
C 	C 	0.01561 0.09207 -0.48560 -0.11000
H 	H 	-0.00557 1.01036 0.25999 0.07400
H 	H 	0.02794 0.94246 0.27851 0.07800
H 	H 	0.05037 -0.07946 0.64115 0.06300
H 	H 	0.07641 -0.00684 -0.12788 0.03900
H 	H 	1.02204 0.19153 -0.34667 0.04000
H 	H 	0.99857 1.12031 -0.58462 0.06000
C 	C 	0.52266 0.21558 0.91099 -0.13500
C 	C 	0.49826 0.20178 0.82873 0.09900
C 	C 	0.46876 0.18638 0.72534 -0.16400
C 	C 	0.45937 0.10386 0.76020 0.07600
C 	C 	0.42792 1.08025 0.86597 -0.07400
C 	C 	0.41911 1.00353 -0.09878 0.01600
C 	C 	0.44187 0.94873 -0.16649 -0.09200
C 	C 	0.47333 0.97258 -0.27434 0.02300
C 	C 	0.48195 1.04962 -0.31169 -0.08600
H 	H 	0.47542 0.20372 0.56518 0.07100
H 	H 	0.44710 0.22176 -0.22307 0.06200
H 	H 	0.40994 0.12133 0.92075 0.04700
H 	H 	0.39462 0.98722 -0.01558 0.03700
H 	H 	0.49132 0.93177 -0.32929 0.03400
H 	H 	0.50630 0.06682 -0.39363 0.04900
C 	C 	0.02077 0.30672 0.32657 -0.12600
C 	C 	0.99072 0.31146 0.38329 0.09700
C 	C 	0.95393 0.31266 0.44939 -0.17100
C 	C 	0.94394 0.38706 0.51925 0.09100
C 	C 	0.92340 0.43731 0.41031 -0.09400
C 	C 	0.91248 0.50460 0.48114 0.03500
C 	C 	0.92157 0.52239 0.66300 -0.09600
C 	C 	0.94211 0.47208 0.77194 0.03400
C 	C 	0.95305 0.40471 0.70069 -0.09400
H 	H 	0.94778 0.26643 0.57255 0.06800
H 	H 	0.93970 0.30111 0.32429 0.06700
H 	H 	0.91521 0.42370 0.27236 0.05500
H 	H 	0.89644 0.54236 0.39541 0.03500
H 	H 	-0.05121 0.48326 0.91521 0.03700
H 	H 	-0.03229 0.36561 0.79089 0.06200
