data_crystal

_cell_length_a 28.89490
_cell_length_b 19.93510
_cell_length_c 8.29170
_cell_angle_alpha 86.10130
_cell_angle_beta  88.07770
_cell_angle_gamma 93.43810

_symmetry_space_group_name_	'P 1'
_symmetry_space_group_name_H-M	'P 1'

loop_
_symmetry_equiv_pos_as_xyz
  x,y,z

loop_
_atom_site_label
_atom_site_type_symbol
_atom_site_fract_x
_atom_site_fract_y
_atom_site_fract_z
_atom_site_charge
Eu	Eu	0.34863 0.75497 0.31001 1.81000
O 	O 	0.23586 0.83665 0.55339 -0.21900
C 	C 	0.29615 0.63900 0.14981 0.28000
O 	O 	0.43263 0.80590 0.10040 -0.32400
O 	O 	0.41041 0.82698 0.35433 -0.42600
O 	O 	0.44002 0.69081 0.35255 -0.31500
O 	O 	0.26425 0.60745 0.09048 -0.23000
O 	O 	0.28601 0.68530 0.26247 -0.43000
O 	O 	0.30680 0.80075 0.50888 -0.40900
C 	C 	0.27014 0.83954 0.46281 0.27300
O 	O 	0.37324 0.67947 0.50360 -0.43300
C 	C 	0.42088 0.67397 0.48361 0.32000
C 	C 	0.43796 0.84100 0.21397 0.27600
Eu	Eu	0.91683 0.77524 0.71220 1.80800
O 	O 	0.83192 0.84768 0.80117 -0.33000
C 	C 	0.82318 0.69076 0.72733 0.33100
O 	O 	1.01371 0.85695 1.03849 -0.21000
O 	O 	0.98153 0.82973 0.80600 -0.41400
O 	O 	0.99387 0.70740 0.29996 -0.22900
O 	O 	0.83317 0.69010 0.86934 -0.33900
O 	O 	0.85407 0.72116 0.60809 -0.45500
O 	O 	0.89038 0.87493 0.61572 -0.44000
C 	C 	0.84772 0.88602 0.68912 0.31700
O 	O 	0.95667 0.76940 0.47126 -0.40900
C 	C 	0.97842 0.71079 0.43740 0.27800
C 	C 	0.97814 0.84617 0.96654 0.28200
Eu	Eu	0.10864 0.26267 0.22181 1.74300
O 	O 	0.13144 0.06484 0.44103 -0.22500
C 	C 	0.20388 0.33983 0.17570 0.27800
O 	O 	0.06313 0.13990 0.08045 -0.30800
O 	O 	0.03448 0.23677 0.15214 -0.44300
O 	O 	0.11682 0.41235 0.30110 -0.30400
O 	O 	0.18159 0.36377 0.06616 -0.32300
O 	O 	0.18216 0.29326 0.29032 -0.44300
O 	O 	0.10375 0.16742 0.39551 -0.40500
C 	C 	0.13842 0.12193 0.37933 0.29900
O 	O 	0.08131 0.31882 0.43174 -0.43300
C 	C 	0.10153 0.38406 0.42863 0.31500
C 	C 	0.02900 0.17215 0.09996 0.27600
Eu	Eu	0.60360 0.25494 0.80128 1.77600
O 	O 	0.64296 0.12924 0.58373 -0.25000
C 	C 	0.61582 0.39752 0.91445 0.27000
O 	O 	0.53407 0.15753 0.97064 -0.34900
O 	O 	0.56180 0.16563 0.71179 -0.43000
O 	O 	0.52507 0.33707 0.63310 -0.27700
O 	O 	0.57402 0.38493 0.93286 -0.31000
O 	O 	0.64449 0.34546 0.88977 -0.44300
O 	O 	0.67265 0.21613 0.71655 -0.42100
C 	C 	0.66971 0.14854 0.68389 0.25100
O 	O 	0.59787 0.31415 0.55952 -0.41600
C 	C 	0.56239 0.35788 0.57035 0.25700
C 	C 	0.53451 0.13366 0.83889 0.32200
C 	C 	0.34564 0.62685 0.10339 -0.18300
C 	C 	0.35716 0.55438 0.15530 0.00800
C 	C 	0.34080 0.50339 0.03367 -0.13500
C 	C 	0.32026 0.43863 0.11853 0.09000
C 	C 	0.27284 0.42011 0.10867 -0.07000
C 	C 	0.25361 0.35974 0.18729 -0.01500
C 	C 	0.28235 0.31772 0.27570 -0.10600
C 	C 	0.32991 0.33551 0.28470 0.18800
O 	O 	0.35920 0.29352 0.36900 -0.28400
C 	C 	0.34857 0.39603 0.20681 -0.14500
H 	H 	0.36932 0.66218 0.16363 -0.04200
H 	H 	0.35194 0.63757 -0.02906 0.05900
H 	H 	0.34196 0.54039 0.27919 0.03300
H 	H 	0.39538 0.55275 0.16487 0.02400
H 	H 	0.31509 0.52510 -0.04844 0.07300
H 	H 	0.37068 0.49203 -0.04577 0.05800
H 	H 	0.25086 0.45295 0.04072 0.07200
H 	H 	0.26802 0.27062 0.33507 0.06300
H 	H 	0.34281 0.25026 0.41881 0.14300
H 	H 	0.38522 0.40990 0.21410 0.08200
C 	C 	0.82219 0.94623 0.63297 -0.19900
C 	C 	0.77166 0.92672 0.59246 -0.01200
C 	C 	0.73787 0.92162 0.74133 -0.14200
C 	C 	0.73105 -0.01009 0.80287 0.09800
C 	C 	0.70349 0.03546 0.71898 -0.07800
C 	C 	0.69932 0.10065 0.76978 -0.01700
C 	C 	0.72309 0.11999 0.90600 -0.11000
C 	C 	0.74978 0.07420 0.99247 0.18900
O 	O 	0.77315 0.09249 1.12896 -0.28100
C 	C 	0.75338 0.00947 0.94144 -0.15200
H 	H 	0.84075 0.97099 0.52288 0.08100
H 	H 	0.82349 0.98341 0.72670 0.07600
H 	H 	0.76993 -0.12227 0.53550 0.04400
H 	H 	0.76011 -0.03496 0.50129 0.04300
H 	H 	0.70374 0.89904 0.70790 0.05500
H 	H 	0.75032 0.88663 0.83834 0.07300
H 	H 	0.68583 0.02020 0.61294 0.06300
H 	H 	0.72070 0.17020 0.94615 0.05600
H 	H 	0.76887 0.14063 0.15529 0.14600
H 	H 	0.77455 -0.02511 1.00819 0.08500
C 	C 	0.18435 0.14423 0.29567 -0.20200
C 	C 	0.21872 0.08850 0.28867 0.00100
C 	C 	0.20722 0.03828 0.16125 -0.09500
C 	C 	0.24154 0.98416 0.16817 0.03600
C 	C 	0.23796 0.93380 0.29527 -0.03300
C 	C 	0.27270 0.88765 0.31690 -0.07900
C 	C 	0.31074 0.89229 0.20589 -0.04600
C 	C 	0.31408 0.94145 0.07578 0.13500
O 	O 	0.35219 0.94699 -0.03374 -0.28500
C 	C 	0.27943 -0.01290 0.05745 -0.09000
H 	H 	0.20078 0.18303 0.36821 0.06700
H 	H 	0.17868 0.16676 0.17224 0.01700
H 	H 	0.22037 0.06176 0.41037 0.04500
H 	H 	0.25384 0.11290 0.25792 0.02900
H 	H 	0.17147 1.01485 0.18262 0.06300
H 	H 	0.20874 0.06558 0.03955 0.05300
H 	H 	0.20882 0.93292 0.38124 0.06300
H 	H 	0.33834 0.85912 0.22005 -0.10900
H 	H 	0.37600 0.91263 0.98991 0.13500
H 	H 	0.28281 0.02618 -0.04013 0.07000
C 	C 	0.77728 0.66020 0.67913 -0.21200
C 	C 	0.77306 0.58323 0.71485 0.01800
C 	C 	0.75548 0.56094 0.88905 -0.13900
C 	C 	0.70341 0.54734 0.90083 0.09000
C 	C 	0.68407 0.48091 0.90506 -0.07400
C 	C 	0.63569 0.46749 0.91427 -0.01100
C 	C 	0.60672 0.52150 0.91683 -0.10600
C 	C 	0.62572 0.58800 0.91224 0.19200
O 	O 	0.59747 0.64247 0.91162 -0.28800
C 	C 	0.67387 0.60060 0.90660 -0.14200
H 	H 	0.77408 0.67119 0.54668 0.08700
H 	H 	0.74902 0.68521 0.74008 0.08500
H 	H 	0.80758 0.56305 0.69178 0.02200
H 	H 	0.74943 0.56021 0.62794 0.02800
H 	H 	0.77225 0.51397 0.92781 0.05900
H 	H 	0.76618 0.59871 0.97510 0.07500
H 	H 	0.70680 0.43972 0.89984 0.05900
H 	H 	0.56939 0.51188 0.92102 0.07200
H 	H 	0.56313 0.62880 0.91075 0.14100
H 	H 	0.68789 0.65205 0.90694 0.08100
C 	C 	0.44910 0.65289 0.62549 -0.20600
C 	C 	0.47342 0.58726 0.60554 0.01400
C 	C 	0.50555 0.59017 0.45281 -0.13700
C 	C 	0.54442 0.54314 0.46943 0.08600
C 	C 	0.53493 0.47369 0.50665 -0.07400
C 	C 	0.57130 0.42996 0.51758 -0.00700
C 	C 	0.61721 0.45609 0.48686 -0.11000
C 	C 	0.62692 0.52525 0.44882 0.19100
O 	O 	0.67241 0.55216 0.41993 -0.29000
C 	C 	0.59064 0.56836 0.44176 -0.14500
H 	H 	0.42596 0.64607 0.73588 0.07900
H 	H 	0.47551 0.69423 0.64461 0.08100
H 	H 	0.44682 0.54483 0.60225 0.02600
H 	H 	0.49396 0.57750 0.71480 0.02500
H 	H 	0.48477 0.57638 0.34822 0.06800
H 	H 	0.52033 0.64266 0.42550 0.07400
H 	H 	0.49931 0.45415 0.52834 0.06300
H 	H 	0.64558 0.42311 0.49553 0.06500
H 	H 	0.69637 0.51706 0.42495 0.13800
H 	H 	0.59867 0.62175 0.41382 0.08300
C 	C 	0.93190 0.85344 1.04992 -0.17300
C 	C 	0.92763 0.92567 0.10113 -0.02200
C 	C 	0.92386 -0.02355 0.95478 -0.10400
C 	C 	0.93064 0.04796 1.00182 0.10000
C 	C 	-0.02466 0.07558 0.02911 -0.08500
C 	C 	-0.01789 0.14261 0.07041 -0.00600
C 	C 	0.94348 0.18179 0.08501 -0.10900
C 	C 	0.89875 0.15456 0.05725 0.19500
O 	O 	0.86007 0.19293 0.07028 -0.28800
C 	C 	0.89259 0.08797 0.01540 -0.15300
H 	H 	0.92833 0.81787 0.15925 0.06800
H 	H 	0.90345 0.83962 0.96989 -0.01100
H 	H 	0.95787 0.94041 0.17365 0.04900
H 	H 	0.89604 0.92666 0.18113 0.03400
H 	H 	0.95008 0.96835 0.85805 0.05500
H 	H 	0.88920 -0.03200 0.90351 0.05700
H 	H 	0.00470 0.04455 1.01780 0.08300
H 	H 	-0.05195 0.23347 0.11723 0.06900
H 	H 	0.86784 0.24034 0.10238 0.13900
H 	H 	0.85808 0.06732 -0.00652 0.08900
C 	C 	0.50471 0.07145 0.81235 -0.20000
C 	C 	0.53336 0.01218 0.76623 0.01700
C 	C 	0.56362 -0.01479 -0.09742 -0.13700
C 	C 	0.53521 -0.03276 0.05672 0.09300
C 	C 	0.50428 0.90999 0.07033 -0.08500
C 	C 	0.47207 0.89943 0.20161 -0.01600
C 	C 	0.47014 0.94822 0.31544 -0.10200
C 	C 	0.50099 1.00551 0.30217 0.16100
O 	O 	0.49643 0.05739 0.40493 -0.26300
C 	C 	0.53484 0.01306 0.17737 -0.12700
H 	H 	0.48102 0.08423 0.71486 0.09000
H 	H 	0.48181 0.05648 -0.07951 0.09000
H 	H 	0.55621 0.02766 0.65779 0.04900
H 	H 	0.50898 -0.02949 -0.26743 0.02900
H 	H 	0.58052 -0.05990 -0.13661 0.06000
H 	H 	0.59192 0.02370 -0.07772 0.05400
H 	H 	0.50445 0.87527 -0.02456 0.06000
H 	H 	0.44409 0.94261 0.41281 0.06800
H 	H 	0.46632 1.05191 0.47188 0.12600
H 	H 	0.55849 0.05746 0.16593 0.08000
C 	C 	0.10662 0.41768 0.58402 -0.19800
C 	C 	0.08388 0.48512 0.58332 0.00300
C 	C 	0.03089 0.47751 0.56957 -0.12400
C 	C 	0.00951 0.53994 0.62212 0.06600
C 	C 	0.99985 0.59235 0.50821 -0.04700
C 	C 	0.98454 0.65376 0.55895 -0.07100
C 	C 	0.97856 0.66081 0.72521 -0.06100
C 	C 	-0.01363 0.60780 0.83932 0.15700
O 	O 	-0.02012 0.61423 1.00500 -0.27800
C 	C 	0.00225 0.54802 0.78760 -0.13000
H 	H 	0.14426 0.42664 0.60376 0.08200
H 	H 	0.09168 0.38354 0.68668 0.07000
H 	H 	0.09926 0.51987 0.48244 0.04800
H 	H 	0.09257 0.50796 0.69830 0.03800
H 	H 	1.02222 0.46881 0.44269 0.06200
H 	H 	0.01607 0.43289 0.64630 0.05700
H 	H 	1.00564 0.58590 0.38032 0.06200
H 	H 	0.96975 0.70791 0.76751 -0.11500
H 	H 	-0.03216 0.65907 1.03082 0.13300
H 	H 	0.00980 0.50854 0.87774 0.07500
