data_crystal

_cell_length_a 38.08970
_cell_length_b 40.00820
_cell_length_c 30.20470
_cell_angle_alpha 95.89990
_cell_angle_beta  84.48260
_cell_angle_gamma 122.75060

_symmetry_space_group_name_	'P 1'
_symmetry_space_group_name_H-M	'P 1'

loop_
_symmetry_equiv_pos_as_xyz
  x,y,z

loop_
_atom_site_label
_atom_site_type_symbol
_atom_site_fract_x
_atom_site_fract_y
_atom_site_fract_z
_atom_site_charge
O 	O 	0.37145 0.57971 0.88873 -0.50900
Sm	Sm	0.40474 0.58930 0.82201 2.37700
O 	O 	0.33546 0.55929 0.82981 -0.51000
C 	C 	0.42221 0.63612 0.75718 0.43400
O 	O 	0.41051 0.64262 0.79660 -0.48100
O 	O 	0.42416 0.60495 0.75164 -0.48800
C 	C 	0.45762 0.56840 0.83515 0.42700
C 	C 	0.33539 0.56267 0.87249 0.37900
O 	O 	0.46915 0.60477 0.83262 -0.47400
O 	O 	0.41838 0.54318 0.83141 -0.48900
O 	O 	0.82332 0.38192 0.20904 -0.51800
Sm	Sm	0.81457 0.38123 0.13716 2.37200
O 	O 	0.78698 0.32524 0.17225 -0.50300
C 	C 	0.75228 0.36519 0.08913 0.42800
O 	O 	0.75178 0.37164 0.13159 -0.48100
O 	O 	0.78489 0.36607 0.07209 -0.47800
C 	C 	0.89155 0.43673 0.11274 0.43400
C 	C 	0.80237 0.34387 0.20943 0.37800
O 	O 	0.86128 0.44234 0.11566 -0.48600
O 	O 	0.88152 0.40212 0.12244 -0.48800
O 	O 	0.45020 0.85509 0.47396 -0.50400
Sm	Sm	0.44593 0.79666 0.46592 2.15300
O 	O 	0.47986 0.84257 0.52090 -0.50300
C 	C 	0.41680 0.73460 0.51755 0.39400
O 	O 	0.40736 0.76057 0.52495 -0.43200
O 	O 	0.44136 0.74081 0.48374 -0.51200
C 	C 	0.36641 0.75477 0.44013 0.39200
C 	C 	0.47162 0.86706 0.50857 0.37900
O 	O 	0.37694 0.77251 0.47822 -0.43700
O 	O 	0.39701 0.75922 0.41509 -0.49100
O 	O 	0.55181 0.13545 0.49164 -0.47500
Sm	Sm	0.60852 0.19692 0.49660 2.38300
O 	O 	0.61202 0.14450 0.47126 -0.47600
C 	C 	0.66264 0.24874 0.43898 0.42800
O 	O 	0.62593 0.22010 0.42851 -0.47500
O 	O 	0.67057 0.25051 0.47974 -0.47900
C 	C 	0.59213 0.22082 0.57654 0.43000
C 	C 	0.57261 0.11962 0.47684 0.42700
O 	O 	0.59004 0.23396 0.54054 -0.47700
O 	O 	0.60308 0.19547 0.57058 -0.47700
O 	O 	0.15263 0.64933 0.15073 -0.51000
Sm	Sm	0.19457 0.62784 0.15890 2.38100
O 	O 	0.12919 0.58662 0.13794 -0.49500
C 	C 	0.23382 0.60135 0.10445 0.44300
O 	O 	0.22035 0.62173 0.09139 -0.49800
O 	O 	0.22648 0.59441 0.14592 -0.48300
C 	C 	0.22911 0.66990 0.23278 0.42800
C 	C 	0.12191 0.61448 0.13953 0.36500
O 	O 	0.24905 0.67708 0.19477 -0.48300
O 	O 	0.19114 0.64020 0.23232 -0.48400
O 	O 	0.62609 0.48237 0.86125 -0.51700
Sm	Sm	0.64747 0.44034 0.83823 2.15500
O 	O 	0.58734 0.42263 0.87862 -0.43000
C 	C 	0.65916 0.43215 0.92201 0.39400
O 	O 	0.62587 0.40824 0.90199 -0.43600
O 	O 	0.68650 0.46014 0.89853 -0.50500
C 	C 	0.61475 0.37453 0.78507 0.37100
C 	C 	0.59232 0.45667 0.88065 0.39200
O 	O 	0.64398 0.38443 0.81089 -0.49400
O 	O 	0.60240 0.39863 0.78716 -0.49900
C 	C 	0.29598 0.54894 0.90107 -0.21100
C 	C 	0.28942 0.52067 0.93642 0.00600
C 	C 	0.31551 0.54215 0.97779 -0.04500
C 	C 	0.29499 0.55795 0.01143 -0.05900
C 	C 	0.30615 0.59775 0.01186 0.21100
F 	F 	0.33624 0.62298 0.98276 -0.38200
C 	C 	0.28631 0.61190 0.04232 0.31100
F 	F 	0.29749 0.65038 0.04188 -0.37800
C 	C 	0.25595 0.58686 0.07374 -0.21700
C 	C 	0.24618 0.54769 0.07478 0.31200
F 	F 	0.21730 0.52313 0.10521 -0.37500
C 	C 	0.26510 0.53313 0.04350 0.21100
F 	F 	0.25405 0.49472 0.04434 -0.36800
H 	H 	0.29632 0.57530 0.91705 0.13600
H 	H 	0.26905 0.53302 0.87907 0.11500
H 	H 	0.29703 0.49875 0.92098 0.05900
H 	H 	0.25570 0.50325 0.94712 0.07400
H 	H 	0.34762 0.56645 0.96818 0.10700
H 	H 	0.31944 0.52069 0.99390 0.10000
C 	C 	0.79707 0.32224 0.24979 -0.20500
C 	C 	0.81493 0.35017 0.29175 -0.00300
C 	C 	0.78537 0.36275 0.31402 -0.03200
C 	C 	0.75326 0.33262 0.34582 -0.06800
C 	C 	0.71161 0.30610 0.33414 0.21400
F 	F 	0.69936 0.30672 0.29362 -0.37400
C 	C 	0.68218 0.27857 0.36413 0.30600
F 	F 	0.64232 0.25335 0.35156 -0.36600
C 	C 	0.69371 0.27743 0.40668 -0.20700
C 	C 	0.73550 0.30414 0.41819 0.30500
F 	F 	0.74826 0.30385 0.45852 -0.36900
C 	C 	0.76487 0.33135 0.38809 0.21500
F 	F 	0.80481 0.35681 0.40038 -0.37200
H 	H 	0.76347 0.29941 0.25596 0.13400
H 	H 	0.81370 0.30638 0.24214 0.11100
H 	H 	0.84570 0.37713 0.28311 0.07500
H 	H 	0.82133 0.33502 0.31569 0.08300
H 	H 	0.77013 0.36793 0.28830 0.09400
H 	H 	0.80408 0.39190 0.33289 0.09500
C 	C 	0.66553 0.42891 0.96925 -0.21400
C 	C 	0.62720 0.39321 0.99156 -0.00200
C 	C 	0.62676 0.35442 0.98275 -0.03900
C 	C 	0.65819 0.35449 0.00988 -0.06000
C 	C 	0.69514 0.35901 0.98952 0.20400
F 	F 	0.70287 0.36242 0.94487 -0.38000
C 	C 	0.72506 0.36116 0.01511 0.31000
F 	F 	0.76075 0.36651 -0.00579 -0.36800
C 	C 	0.71875 0.35898 0.06170 -0.21200
C 	C 	0.68105 0.35307 0.08186 0.30700
F 	F 	0.67318 0.34978 0.12650 -0.36600
C 	C 	0.65101 0.35060 0.05613 0.21200
F 	F 	0.61482 0.34454 0.07645 -0.37100
H 	H 	0.69373 0.42745 0.97014 0.12500
H 	H 	0.67189 0.45674 0.98837 0.10500
H 	H 	0.59786 0.38842 0.98002 0.06900
H 	H 	0.62679 0.40051 1.02797 0.08200
H 	H 	0.63237 0.34981 0.94653 0.09800
H 	H 	0.59510 0.32886 0.99171 0.09600
C 	C 	0.32195 0.72897 0.42708 -0.21000
C 	C 	0.29925 0.75143 0.43127 -0.00800
C 	C 	0.30592 0.77381 0.38979 -0.03300
C 	C 	0.28583 0.74577 0.34956 -0.06800
C 	C 	0.31065 0.74285 0.31373 0.21000
F 	F 	0.35293 0.76416 0.31522 -0.38300
C 	C 	0.29213 0.71765 0.27615 0.30500
F 	F 	0.31709 0.71536 0.24235 -0.37200
C 	C 	0.24839 0.69474 0.27366 -0.21400
C 	C 	0.22349 0.69711 0.30983 0.30500
F 	F 	0.18121 0.67583 0.30835 -0.37500
C 	C 	0.24205 0.72258 0.34731 0.21200
F 	F 	0.21725 0.72519 0.38108 -0.37400
H 	H 	0.32067 0.71534 0.39285 0.12400
H 	H 	0.30561 0.70415 0.44972 0.10700
H 	H 	0.30978 0.77297 0.46080 0.06800
H 	H 	0.26529 0.72973 0.43751 0.09000
H 	H 	0.33994 0.79494 0.38316 0.09000
H 	H 	0.29208 0.79225 0.39689 0.09300
C 	C 	0.39951 0.69926 0.54491 -0.22400
C 	C 	0.43427 0.69721 0.56378 0.00200
C 	C 	0.45421 0.72695 0.60423 -0.03700
C 	C 	0.44749 0.70566 0.64569 -0.06500
C 	C 	0.41864 0.70307 0.68014 0.21300
F 	F 	0.39630 0.72000 0.67696 -0.37400
C 	C 	0.41147 0.68173 0.71746 0.30800
F 	F 	0.38278 0.67894 0.74973 -0.37500
C 	C 	0.43250 0.66206 0.72046 -0.21500
C 	C 	0.46209 0.66559 0.68657 0.30800
F 	F 	0.48423 0.64843 0.68953 -0.37100
C 	C 	0.46948 0.68711 0.64954 0.21200
F 	F 	0.49760 0.68926 0.61687 -0.37400
H 	H 	0.37819 0.69976 0.57237 0.12900
H 	H 	0.38063 0.67199 0.52315 0.10800
H 	H 	0.45883 0.70269 0.53726 0.06900
H 	H 	0.42058 0.66614 0.57294 0.07300
H 	H 	0.44202 0.74679 0.61002 0.09200
H 	H 	0.48833 0.74703 0.59699 0.08500
C 	C 	0.59677 0.33815 0.75385 -0.21100
C 	C 	0.58085 0.30017 0.77813 0.00200
C 	C 	0.54616 0.26277 0.75343 -0.04100
C 	C 	0.56046 0.25433 0.70748 -0.06400
C 	C 	0.54942 0.26308 0.66910 0.21000
F 	F 	0.52744 0.28103 0.67264 -0.37700
C 	C 	0.56035 0.25290 0.62661 0.30600
F 	F 	0.54837 0.26114 0.59046 -0.37000
C 	C 	0.58220 0.23333 0.62156 -0.20900
C 	C 	0.59351 0.22490 0.66009 0.30600
F 	F 	0.61477 0.20627 0.65683 -0.36800
C 	C 	0.58290 0.23546 0.70256 0.21300
F 	F 	0.59361 0.22626 0.73899 -0.37000
H 	H 	0.57089 0.33591 0.73684 0.13600
H 	H 	0.62132 0.34185 0.72815 0.10900
H 	H 	0.56781 0.30271 0.81197 0.05900
H 	H 	0.60738 0.29676 0.78250 0.08700
H 	H 	0.51920 0.26604 0.75144 0.09800
H 	H 	0.53448 0.23673 0.77370 0.09800
C 	C 	0.56091 0.46504 0.90369 -0.22300
C 	C 	0.57280 0.50806 0.90019 0.01000
C 	C 	0.57266 0.51773 0.85195 -0.03000
C 	C 	0.54321 0.53151 0.84829 -0.07100
C 	C 	0.49996 0.50357 0.84857 0.21400
F 	F 	0.48459 0.46432 0.85160 -0.38300
C 	C 	0.47219 0.51569 0.84523 0.30200
F 	F 	0.43060 0.48764 0.84601 -0.37400
C 	C 	0.48716 0.55608 0.84108 -0.21000
C 	C 	0.53059 0.58419 0.84131 0.30500
F 	F 	0.54636 0.62349 0.83795 -0.36600
C 	C 	0.55835 0.57194 0.84476 0.21700
F 	F 	0.60002 0.59969 0.84469 -0.37300
H 	H 	0.52997 0.44400 0.88941 0.13900
H 	H 	0.55796 0.45922 0.93946 0.11000
H 	H 	0.60423 0.52905 0.91359 0.06100
H 	H 	0.55048 0.51257 0.92247 0.06900
H 	H 	0.56360 0.49153 0.82809 0.08000
H 	H 	0.60501 0.54092 0.84111 0.09200
C 	C 	0.08032 0.60695 0.12968 -0.19700
C 	C 	0.07369 0.60084 0.07943 -0.00800
C 	C 	0.06152 0.55910 0.05973 -0.03600
C 	C 	0.01737 0.52728 0.07382 -0.06200
C 	C 	1.00977 0.49755 0.10141 0.20900
F 	F 	0.04196 0.49719 0.11660 -0.37000
C 	C 	0.96883 0.46791 0.11377 0.30800
F 	F 	0.96260 0.43977 0.14063 -0.37700
C 	C 	0.93475 0.46784 0.09936 -0.21800
C 	C 	0.94234 0.49760 0.07189 0.30900
F 	F 	0.91014 0.49801 0.05679 -0.37200
C 	C 	0.98320 0.52660 0.05859 0.20900
F 	F 	0.98938 0.55369 0.03020 -0.37500
H 	H 	0.05490 0.58107 0.14766 0.11900
H 	H 	0.07906 0.63335 0.14261 0.11300
H 	H 	0.10262 0.62355 0.06152 0.05700
H 	H 	0.04910 0.60644 0.07332 0.09000
H 	H 	0.08448 0.55240 0.06892 0.10300
H 	H 	0.06399 0.55915 0.02279 0.09200
C 	C 	0.48456 0.90583 0.53399 -0.22000
C 	C 	0.51724 0.94218 0.50831 -0.00100
C 	C 	0.49995 0.94890 0.46821 -0.03300
C 	C 	0.51759 0.99276 0.46485 -0.06700
C 	C 	0.49223 0.00842 0.47517 0.21700
F 	F 	0.45068 0.98402 0.48506 -0.37100
C 	C 	0.50976 0.04957 0.47725 0.30500
F 	F 	0.48443 0.06352 0.48890 -0.36600
C 	C 	0.55304 0.07596 0.46897 -0.20600
C 	C 	0.57790 0.05997 0.45617 0.30400
F 	F 	0.61958 0.08415 0.44705 -0.36800
C 	C 	0.56034 0.01885 0.45424 0.21400
F 	F 	0.58544 0.00448 0.44357 -0.37800
H 	H 	0.45653 0.90728 0.54346 0.12000
H 	H 	0.49811 0.90677 0.56541 0.11600
H 	H 	0.54431 0.93953 0.49700 0.06800
H 	H 	0.52909 0.96842 0.53261 0.07100
H 	H 	0.46531 0.93209 0.47116 0.10100
H 	H 	0.50824 0.93687 0.43698 0.08000
