data_crystal

_cell_length_a 20.05860
_cell_length_b 20.11090
_cell_length_c 20.63480
_cell_angle_alpha 126.33620
_cell_angle_beta  64.18790
_cell_angle_gamma 128.25940

_symmetry_space_group_name_	'P 1'
_symmetry_space_group_name_H-M	'P 1'

loop_
_symmetry_equiv_pos_as_xyz
  x,y,z

loop_
_atom_site_label
_atom_site_type_symbol
_atom_site_fract_x
_atom_site_fract_y
_atom_site_fract_z
_atom_site_charge
Mn	Mn	0.02230 0.38163 0.27354 1.19900
Mn	Mn	0.90545 0.14037 0.17967 1.27800
Mn	Mn	0.95777 0.67553 0.71625 1.20900
Mn	Mn	0.11806 0.89297 0.82729 1.26800
Mn	Mn	0.02157 0.02197 0.01299 1.24900
C 	C 	-0.05977 0.35217 0.16521 0.04100
N 	N 	-0.07571 0.31667 0.21255 -0.25700
N 	N 	0.89737 0.22465 0.16325 -0.19800
N 	N 	0.91565 0.21074 0.08796 -0.06400
N 	N 	0.94374 0.28927 0.08736 -0.08200
N 	N 	0.79634 0.01151 0.05297 -0.13800
N 	N 	0.86736 0.04008 0.07219 -0.22400
N 	N 	0.91483 0.00911 1.00768 -0.19200
N 	N 	0.87556 0.95748 0.94224 -0.08400
C 	C 	0.80112 0.95898 0.97234 0.15200
C 	C 	-0.04912 -0.00125 0.22202 0.05800
N 	N 	-0.07284 0.05585 0.18122 -0.20500
N 	N 	-0.08606 0.04865 0.24568 -0.10000
N 	N 	0.07426 0.16705 0.08209 -0.24600
N 	N 	0.02684 0.20505 0.13890 -0.20400
N 	N 	0.07202 0.29880 0.17372 -0.20900
N 	N 	0.15209 0.32657 0.14111 -0.13200
N 	N 	-0.03061 0.01163 0.12005 -0.21200
N 	N 	-0.01231 0.97750 0.14466 -0.06900
C 	C 	0.15284 0.24422 1.08329 0.14400
N 	N 	1.03244 0.68886 0.76976 -0.25200
N 	N 	0.09846 0.77067 0.80764 -0.20400
N 	N 	0.11753 0.76404 0.85674 -0.05100
N 	N 	0.06307 0.67788 0.85241 -0.09100
N 	N 	0.21817 0.97589 0.95502 -0.08100
N 	N 	0.15505 0.96781 0.94003 -0.19800
N 	N 	0.12438 1.02096 0.00733 -0.18500
N 	N 	0.16331 0.06143 0.06901 -0.11200
N 	N 	1.07500 0.10162 0.90288 -0.12200
N 	N 	1.07629 1.04255 0.91160 -0.16800
N 	N 	1.12324 1.00696 0.84976 -0.19100
N 	N 	1.15135 1.03787 0.79641 -0.08800
N 	N 	0.96800 0.87888 0.94637 -0.21900
N 	N 	0.99454 0.84730 0.86921 -0.19600
N 	N 	0.93219 0.76603 0.82736 -0.20900
N 	N 	0.86373 0.74089 0.87783 -0.11200
Cl	Cl	-0.05406 0.25916 0.30444 -0.81500
Cl	Cl	1.07337 0.80785 0.70386 -0.76900
C 	C 	1.00907 0.63244 0.79943 0.11200
C 	C 	0.22176 0.03336 0.03543 0.07200
C 	C 	1.12048 1.09647 0.83034 0.17900
C 	C 	0.88760 0.80751 -0.04721 0.10300
C 	C 	0.87343 0.76039 -0.00373 -0.06700
N 	N 	0.78392 0.68912 0.00394 -0.16300
C 	C 	0.76119 0.62734 0.02920 0.19100
O 	O 	0.81144 0.64290 0.06117 -0.21800
C 	C 	0.67572 0.54225 0.01912 -0.03800
C 	C 	0.63937 0.48540 -0.05335 -0.05900
C 	C 	0.55588 0.40833 0.93950 -0.00700
C 	C 	0.50619 0.38863 0.00579 -0.01700
C 	C 	0.41190 0.32124 0.00571 0.00800
C 	C 	0.36709 0.28486 0.06202 -0.07700
C 	C 	0.28005 0.25264 1.08327 0.01100
C 	C 	0.23366 0.24504 1.04245 -0.06500
C 	C 	0.27590 0.27147 0.98028 -0.01200
C 	C 	0.36428 0.30970 0.96212 -0.04800
C 	C 	0.54552 0.44322 0.07677 -0.04200
C 	C 	0.62971 0.51793 0.08264 -0.01800
H 	H 	0.89750 0.81183 0.05606 0.07100
H 	H 	0.90938 0.72052 -0.04612 0.05600
H 	H 	0.73789 0.67937 -0.01680 0.07500
H 	H 	0.67524 0.50139 0.89595 0.04100
H 	H 	0.52964 0.36638 0.88289 0.02400
H 	H 	0.39991 0.28905 0.09535 0.03600
H 	H 	0.25008 0.24080 1.13618 0.03000
H 	H 	0.24164 0.27109 0.95138 0.02600
H 	H 	0.39548 0.33920 0.92013 0.03500
H 	H 	0.51050 0.43283 0.13021 0.03300
H 	H 	0.65734 0.56021 0.13861 0.04200
C 	C 	0.92212 0.54674 0.79439 -0.07200
N 	N 	0.92916 0.46423 0.76295 -0.16400
C 	C 	0.86653 0.39167 0.78311 0.20600
O 	O 	0.82450 0.31389 0.73000 -0.23700
C 	C 	0.85101 0.40169 0.86565 -0.05600
C 	C 	0.88742 0.48986 0.93318 0.03200
C 	C 	0.87812 0.49446 0.00697 -0.04800
C 	C 	0.83558 0.41096 0.01460 -0.00900
C 	C 	0.84339 0.41411 0.08574 0.04300
C 	C 	0.78667 0.33574 0.10308 -0.06900
C 	C 	0.81035 0.32401 0.14863 0.00900
C 	C 	-0.10869 0.39157 0.17837 -0.05700
C 	C 	-0.06076 0.47750 0.17482 -0.01500
C 	C 	-0.08339 0.48819 0.12772 -0.08900
C 	C 	0.79587 0.32306 0.94784 -0.03000
C 	C 	0.80218 0.31874 0.87542 -0.00700
H 	H 	0.88758 0.53144 0.75313 -0.03400
H 	H 	0.88391 0.56188 0.85419 0.04900
H 	H 	0.96065 0.44535 0.70447 0.08000
H 	H 	-0.07274 0.55592 0.92932 0.02700
H 	H 	-0.09200 0.56406 0.05682 0.04000
H 	H 	0.72682 0.28006 0.07690 0.03800
H 	H 	0.77024 0.25853 0.15415 0.02800
H 	H 	0.00212 0.52925 0.19576 0.00200
H 	H 	-0.03736 0.54986 1.11704 0.05700
H 	H 	0.76380 0.25628 0.94888 0.03800
H 	H 	0.77248 0.24934 0.82524 0.04100
C 	C 	0.28625 1.06708 0.08066 -0.04600
N 	N 	0.26195 0.99334 0.09752 -0.14600
C 	C 	0.26930 0.91034 1.03585 0.20400
O 	O 	0.20410 0.83340 1.01560 -0.20900
C 	C 	0.35374 0.91456 1.00067 -0.04500
C 	C 	0.42924 0.99792 0.03402 0.00600
C 	C 	0.50664 0.99801 0.00627 -0.03100
C 	C 	0.51033 0.91450 0.94508 0.01200
C 	C 	0.58965 0.91172 0.92516 0.04200
C 	C 	0.58551 0.83703 0.92142 -0.05300
C 	C 	0.65959 0.84532 0.92302 -0.02000
C 	C 	0.73895 0.92769 0.92748 -0.00700
C 	C 	0.74441 -0.00251 0.92228 -0.04000
C 	C 	0.67044 -0.01051 0.92085 -0.07500
C 	C 	0.43547 0.83196 0.90987 -0.05000
C 	C 	0.35827 0.83210 0.93704 -0.00600
H 	H 	0.34918 1.08663 1.04488 0.05900
H 	H 	0.29106 1.13192 0.13825 0.05300
H 	H 	0.21626 -0.01308 0.14707 0.05900
H 	H 	0.42815 0.06226 0.08400 0.00100
H 	H 	0.56286 0.06251 0.03577 0.01100
H 	H 	0.52438 0.77604 0.92478 0.04100
H 	H 	0.65352 0.79198 0.92948 0.03300
H 	H 	0.80448 0.06327 0.92863 0.04700
H 	H 	0.67573 0.04745 0.92250 0.04300
H 	H 	0.43636 0.76674 0.86228 0.03900
H 	H 	0.30144 0.76667 0.90965 0.04500
C 	C 	0.14496 1.16027 0.79912 -0.07200
N 	N 	0.09184 1.11109 0.73694 -0.15800
C 	C 	0.10862 1.05448 0.65735 0.21800
O 	O 	0.15383 1.02379 0.63994 -0.22200
C 	C 	0.07462 1.03234 0.59172 -0.09600
C 	C 	0.05219 1.09287 0.60349 0.08300
C 	C 	0.02581 0.07606 0.54047 -0.17900
C 	C 	0.02122 0.99847 0.46377 0.09200
C 	C 	-0.00477 0.98388 0.39717 -0.03900
C 	C 	0.03994 0.96167 0.31918 -0.02000
C 	C 	0.02249 0.96113 0.26008 -0.04100
C 	C 	-0.03943 0.98352 0.27838 0.01100
C 	C 	0.91251 1.00010 0.35468 -0.02600
C 	C 	0.92951 0.99999 0.41326 -0.00600
C 	C 	0.04390 0.93792 0.45149 -0.09700
C 	C 	0.07024 0.95469 0.51496 0.02900
H 	H 	1.21366 1.18841 0.77437 0.08000
H 	H 	0.13731 0.22272 0.85046 0.03000
H 	H 	1.04312 0.12559 0.75447 0.07500
H 	H 	1.05784 0.15568 0.66031 0.00000
H 	H 	1.01121 0.12578 0.55141 0.07400
H 	H 	0.09124 0.94949 0.30518 0.03500
H 	H 	0.06015 0.94766 0.20148 0.05500
H 	H 	0.86365 1.01643 0.36999 0.05500
H 	H 	0.89286 1.01542 0.47224 0.04200
H 	H 	0.04127 0.87759 0.39294 0.04800
H 	H 	0.08793 0.90719 0.50359 0.02600
