data_crystal

_cell_length_a 17.39470
_cell_length_b 16.81180
_cell_length_c 18.03800
_cell_angle_alpha 138.43150
_cell_angle_beta  51.95270
_cell_angle_gamma 131.58000

_symmetry_space_group_name_	'P 1'
_symmetry_space_group_name_H-M	'P 1'

loop_
_symmetry_equiv_pos_as_xyz
  x,y,z

loop_
_atom_site_label
_atom_site_type_symbol
_atom_site_fract_x
_atom_site_fract_y
_atom_site_fract_z
_atom_site_charge
Mn	Mn	-0.03285 0.49443 0.35805 1.22500
Mn	Mn	0.86213 0.17329 0.25229 1.27800
Mn	Mn	1.09084 0.51297 0.58284 1.25100
Mn	Mn	0.20966 0.84216 0.70975 1.26700
Mn	Mn	0.03422 0.00565 -0.01846 1.25100
C 	C 	-0.21637 0.36145 0.26452 0.06400
N 	N 	-0.16489 0.36285 0.29864 -0.25500
N 	N 	0.78602 0.24700 0.27654 -0.18800
N 	N 	0.70072 0.18040 0.24160 -0.05500
N 	N 	0.69712 0.24942 0.23304 -0.07900
N 	N 	0.72436 -0.04183 0.09517 -0.11900
N 	N 	0.81645 0.00443 0.10625 -0.22100
N 	N 	0.88325 -0.03721 1.00413 -0.17600
N 	N 	0.83743 0.89274 0.92325 -0.08500
C 	C 	0.73769 0.89062 0.98253 0.13400
C 	C 	-0.01593 0.03403 0.25246 0.03800
N 	N 	-0.06213 0.10087 0.22874 -0.20700
N 	N 	-0.06616 0.10899 0.30956 -0.10100
N 	N 	0.06726 0.19770 0.07765 -0.25000
N 	N 	-0.00516 0.24760 0.16232 -0.19900
N 	N 	0.03583 0.37140 0.20534 -0.20700
N 	N 	0.13629 0.40713 0.15286 -0.12000
N 	N 	-0.01245 0.02451 0.12722 -0.21000
N 	N 	0.01828 0.98095 0.13878 -0.07300
C 	C 	0.15614 0.29823 1.07224 0.13900
N 	N 	1.20966 0.63223 0.65981 -0.24100
N 	N 	0.27024 0.75061 0.68447 -0.19900
N 	N 	0.33763 0.80989 0.73914 -0.04800
N 	N 	0.31552 0.73530 0.76003 -0.08900
N 	N 	0.33737 1.04035 0.87697 -0.07700
N 	N 	0.25160 1.00341 0.86078 -0.19500
N 	N 	0.18343 1.04772 -0.03913 -0.19500
N 	N 	0.22072 0.10711 0.04376 -0.10100
N 	N 	1.05487 0.03748 0.82651 -0.10700
N 	N 	1.08230 0.98861 0.83558 -0.17400
N 	N 	1.14353 0.92668 0.73643 -0.19200
N 	N 	1.15753 0.93206 0.65933 -0.11000
N 	N 	1.00094 0.81412 0.88508 -0.20600
N 	N 	1.06631 0.75911 0.78708 -0.18700
N 	N 	1.01972 0.63224 0.73403 -0.19900
N 	N 	0.92424 0.59856 0.79517 -0.08900
Cl	Cl	-0.07930 0.37406 0.41003 -0.80300
Cl	Cl	1.15958 0.65407 0.54324 -0.76000
C 	C 	1.23110 0.62711 0.71633 0.14200
C 	C 	0.31721 0.10199 -0.00967 0.09200
C 	C 	1.10171 1.00111 0.71652 0.16900
C 	C 	0.91286 0.71247 -0.11036 0.08400
C 	C 	0.81441 0.71361 -0.02090 -0.05500
C 	C 	0.80172 0.70839 0.06018 -0.02000
C 	C 	0.70088 0.64990 0.11060 -0.02300
C 	C 	0.61095 0.59460 0.08002 -0.03500
C 	C 	0.50618 0.51861 0.12301 0.11700
O 	O 	0.49163 0.53792 0.20989 -0.20000
C 	C 	0.41804 0.42073 0.06505 0.05200
N 	N 	0.42928 0.35959 0.95358 -0.06900
N 	N 	0.33290 0.29470 0.93817 -0.08700
C 	C 	0.26371 0.31414 1.03957 0.08700
N 	N 	0.31490 0.39102 0.11944 -0.10200
N 	N 	0.26985 0.44552 0.23787 -0.15300
C 	C 	0.62348 0.61033 1.00638 -0.00500
C 	C 	0.72439 0.66550 0.95387 0.01100
H 	H 	0.87022 0.73720 0.07560 0.05000
H 	H 	0.69413 0.64063 0.16786 0.05900
H 	H 	0.28843 0.41959 0.26093 0.08900
H 	H 	0.30521 0.54667 0.28229 0.09500
H 	H 	0.55628 0.57570 0.98515 0.05300
H 	H 	0.73253 0.66003 0.88575 0.04200
C 	C 	1.14850 0.55899 0.77398 -0.05700
C 	C 	1.04527 0.48207 0.75944 0.03100
C 	C 	0.96115 0.44785 0.83550 -0.04500
C 	C 	0.97722 0.48946 0.92934 0.00600
C 	C 	0.88187 0.46420 1.01632 0.12500
O 	O 	0.79552 0.42740 1.01166 -0.17400
C 	C 	-0.11735 0.47553 1.10589 0.08800
N 	N 	-0.03411 0.54793 0.14913 -0.10100
N 	N 	-0.06334 0.52373 0.22014 -0.12800
C 	C 	-0.16487 0.43787 0.22117 0.03200
N 	N 	-0.20050 0.40742 1.15103 -0.08800
N 	N 	0.70136 0.31565 1.12130 -0.12400
C 	C 	1.08228 0.55782 0.93849 -0.01000
C 	C 	1.16675 0.59136 0.86125 0.03700
H 	H 	1.02788 0.45442 0.69346 -0.07000
H 	H 	0.88216 0.39353 0.82362 0.06200
H 	H 	0.64156 0.33545 1.19732 0.11400
H 	H 	-0.30331 0.22320 1.07502 0.08500
H 	H 	1.10081 0.59094 0.00680 0.04200
H 	H 	1.24571 0.65016 -0.12531 0.03300
C 	C 	0.36331 0.09251 0.02908 -0.03400
C 	C 	0.29668 0.05323 0.10323 -0.02900
C 	C 	0.32155 -0.01202 0.10141 -0.02000
C 	C 	0.41481 -0.03713 0.02734 -0.04700
C 	C 	0.42899 -0.12585 0.01435 0.12200
O 	O 	0.35221 -0.19164 0.05094 -0.21800
C 	C 	0.53097 -0.13693 -0.03647 0.03400
N 	N 	0.60655 0.86757 0.87252 -0.05500
N 	N 	0.68824 0.86378 0.85978 -0.07900
C 	C 	0.66093 0.85373 0.94125 0.11800
N 	N 	0.56228 -0.14938 0.00547 -0.11400
N 	N 	0.51136 -0.14427 0.10625 -0.15300
C 	C 	0.48806 0.01824 0.96493 0.00300
C 	C 	0.46210 0.08160 0.96530 0.00200
H 	H 	0.22030 0.06074 0.15386 0.04700
H 	H 	0.26455 -0.04898 0.15397 0.04800
H 	H 	0.49334 -0.06135 0.17365 0.09200
H 	H 	0.44022 -0.22587 0.09392 0.08500
H 	H 	0.56244 0.00673 0.91007 0.04900
H 	H 	0.51530 0.11175 0.90769 0.04800
C 	C 	0.09545 0.03574 0.66611 -0.09800
C 	C 	0.05567 0.13041 0.73747 -0.00500
C 	C 	0.05646 0.16995 0.69111 -0.03000
C 	C 	0.09485 0.11370 0.57239 -0.03900
C 	C 	0.10476 0.16742 0.52844 0.12200
O 	O 	0.14552 0.28495 0.57863 -0.20500
C 	C 	0.06451 0.08612 0.42923 0.04600
N 	N 	1.05975 0.96365 0.33769 -0.06300
N 	N 	1.02854 0.92825 0.26217 -0.08600
C 	C 	1.01290 1.02880 0.30960 0.14400
N 	N 	0.03528 0.12819 0.41340 -0.11500
N 	N 	0.03216 0.25104 0.48841 -0.15800
C 	C 	1.13194 1.01643 0.50030 -0.00800
C 	C 	1.13247 0.97791 0.54694 0.01900
H 	H 	0.02724 0.17714 0.82966 0.04000
H 	H 	0.02867 0.24639 0.74833 0.04800
H 	H 	-0.04623 0.23743 0.51389 0.04500
H 	H 	0.07862 0.29168 0.44254 -0.00800
H 	H 	1.16439 0.97407 0.40899 0.05200
H 	H 	1.16359 0.90463 0.49004 0.01900
