data_crystal

_cell_length_a 16.29240
_cell_length_b 14.52680
_cell_length_c 16.03600
_cell_angle_alpha 134.77190
_cell_angle_beta  47.68890
_cell_angle_gamma 129.99600

_symmetry_space_group_name_	'P 1'
_symmetry_space_group_name_H-M	'P 1'

loop_
_symmetry_equiv_pos_as_xyz
  x,y,z

loop_
_atom_site_label
_atom_site_type_symbol
_atom_site_fract_x
_atom_site_fract_y
_atom_site_fract_z
_atom_site_charge
Mn	Mn	-0.11067 0.47734 0.39225 1.23100
Mn	Mn	0.77372 0.13304 0.29434 1.28400
Mn	Mn	1.06940 0.42965 0.63938 1.23300
Mn	Mn	0.18080 0.75590 0.69143 1.27200
Mn	Mn	-0.01872 -0.04817 -0.01111 1.23800
C 	C 	-0.30893 0.37837 0.33816 0.08200
N 	N 	-0.25499 0.35714 0.35689 -0.25600
N 	N 	0.69346 0.22879 0.33128 -0.17700
N 	N 	0.60021 0.17571 0.31388 -0.04400
N 	N 	0.59732 0.26679 0.31620 -0.05500
N 	N 	0.65768 -0.05515 0.12063 -0.12900
N 	N 	0.73804 -0.03626 0.13649 -0.21500
N 	N 	0.81980 -0.08683 1.02252 -0.18000
N 	N 	0.79647 0.86585 0.93098 -0.08200
C 	C 	0.69438 0.88471 0.99264 0.17100
C 	C 	-0.08502 -0.00606 0.30557 0.01200
N 	N 	-0.14760 0.04869 0.27065 -0.20800
N 	N 	-0.15549 0.06078 0.36555 -0.08700
N 	N 	0.01259 0.15676 0.07383 -0.25500
N 	N 	-0.07152 0.21312 0.17756 -0.20200
N 	N 	-0.03177 0.34371 0.21423 -0.20700
N 	N 	0.07857 0.37773 0.13708 -0.12600
N 	N 	-0.07615 -0.02085 0.15960 -0.22700
N 	N 	-0.03428 0.94354 0.17765 -0.05500
C 	C 	0.10805 0.26259 1.05034 0.15900
N 	N 	1.19670 0.58176 0.70727 -0.23500
N 	N 	0.25872 0.68105 0.68004 -0.20100
N 	N 	0.36528 0.73616 0.67213 -0.02900
N 	N 	0.37161 0.67720 0.70240 -0.07300
N 	N 	0.31705 0.97512 0.84535 -0.05000
N 	N 	0.22282 0.93515 0.83669 -0.19200
N 	N 	0.14508 0.99190 -0.04870 -0.18800
N 	N 	0.18662 0.07126 0.03874 -0.10100
N 	N 	1.04124 -0.00754 0.79397 -0.12300
N 	N 	1.04467 0.92003 0.81262 -0.16400
N 	N 	1.10592 0.83590 0.70236 -0.18700
N 	N 	1.14583 0.85298 0.60858 -0.10600
N 	N 	0.94277 0.74779 0.91069 -0.18900
N 	N 	1.02447 0.68846 0.81666 -0.18100
N 	N 	0.97787 0.55842 0.78627 -0.20400
N 	N 	0.86421 0.52608 0.85530 -0.07800
Cl	Cl	-0.17310 0.33488 0.45719 -0.76000
Cl	Cl	1.12824 0.53748 0.53902 -0.70000
C 	C 	1.26388 0.58587 0.73233 0.12500
C 	C 	0.29380 0.05996 -0.02898 0.03200
C 	C 	1.10197 0.94753 0.66663 0.18800
C 	C 	0.84194 0.64471 -0.06616 0.05300
C 	C 	0.72072 0.64903 0.02496 0.04900
C 	C 	0.69087 0.72342 0.15686 -0.12300
C 	C 	0.57427 0.71026 0.24447 0.16000
Br	Br	0.53638 0.81599 0.42450 -0.25900
C 	C 	0.48502 0.61578 0.20093 -0.11400
C 	C 	0.51093 0.53429 0.06844 0.07300
C 	C 	0.41238 0.42719 0.02551 0.00800
N 	N 	0.42113 0.37102 0.90907 -0.05000
N 	N 	0.31803 0.29371 0.90097 -0.07200
C 	C 	0.22926 0.28523 1.00930 0.03400
S 	S 	0.27227 0.38137 0.12922 -0.01300
C 	C 	0.62994 0.55466 -0.01929 -0.11600
H 	H 	0.75612 0.78177 0.19222 0.10200
H 	H 	0.39551 0.60618 0.27206 0.08400
H 	H 	0.65194 0.49275 0.87833 0.10100
C 	C 	1.21675 0.58356 0.84955 0.03900
C 	C 	1.29707 0.64440 -0.10220 -0.11100
C 	C 	1.25990 0.69134 0.02600 0.14700
Br	Br	1.36726 0.78462 0.09705 -0.20800
C 	C 	1.14220 0.67207 0.10621 -0.09200
C 	C 	1.05777 0.59821 0.05906 0.02200
C 	C 	-0.06736 0.55774 0.14363 0.03900
N 	N 	-0.15502 0.47693 1.10534 -0.06900
N 	N 	-0.25219 0.42455 1.18199 -0.05000
C 	C 	-0.24106 0.46604 0.28093 0.01600
S 	S 	-0.10781 0.57959 0.28545 -0.16400
C 	C 	1.09564 0.55515 0.92996 -0.01900
H 	H 	1.38997 0.66395 -0.16193 0.10200
H 	H 	1.11776 0.71261 0.20556 0.07900
H 	H 	1.03224 0.50134 0.89233 0.01500
C 	C 	0.36705 0.11308 0.02827 0.08100
C 	C 	0.35518 0.22682 0.15094 -0.13300
C 	C 	0.42398 0.27895 0.20632 0.16400
Br	Br	0.41227 0.43870 0.37058 -0.26200
C 	C 	0.50036 0.21389 0.14300 -0.13700
C 	C 	0.51115 0.09555 0.02187 0.10200
C 	C 	0.58274 0.01896 -0.03471 -0.03200
N 	N 	0.57390 0.88798 0.87085 -0.02700
N 	N 	0.62217 0.83180 0.86061 -0.06600
C 	C 	0.66828 0.92058 0.94790 0.08500
S 	S 	0.66355 0.08061 0.03599 -0.02200
C 	C 	0.44505 0.04712 -0.03631 -0.18900
H 	H 	0.29303 0.27549 0.20367 0.08300
H 	H 	0.54759 0.25550 0.19266 0.10800
H 	H 	0.45166 0.95635 0.87053 0.14700
C 	C 	0.14236 0.02064 0.60779 -0.06000
C 	C 	0.24185 0.13722 0.61544 -0.06200
C 	C 	0.27444 0.21799 0.57362 0.12000
Br	Br	0.40577 0.38122 0.59330 -0.23400
C 	C 	0.21100 0.17958 0.51843 -0.09500
C 	C 	0.11192 0.06091 0.50776 -0.01800
C 	C 	0.04023 1.02260 0.45567 0.05000
N 	N 	0.93950 0.91654 0.45491 -0.06400
N 	N 	0.88923 0.89970 0.40453 -0.07000
C 	C 	0.94875 0.99557 0.37067 0.12500
S 	S 	0.07473 1.10959 0.39506 -0.10600
C 	C 	0.07800 -0.01810 0.55346 -0.05500
H 	H 	0.28942 0.16949 0.66127 0.06600
H 	H 	0.23964 0.24282 0.48447 0.04600
H 	H 	1.00078 -0.10829 0.54904 0.03100
