data_crystal

_cell_length_a 17.47520
_cell_length_b 17.05530
_cell_length_c 17.89090
_cell_angle_alpha 130.69230
_cell_angle_beta  83.58850
_cell_angle_gamma 128.93090

_symmetry_space_group_name_	'P 1'
_symmetry_space_group_name_H-M	'P 1'

loop_
_symmetry_equiv_pos_as_xyz
  x,y,z

loop_
_atom_site_label
_atom_site_type_symbol
_atom_site_fract_x
_atom_site_fract_y
_atom_site_fract_z
_atom_site_charge
Mn	Mn	0.20192 0.58292 0.42682 1.21400
Mn	Mn	0.93233 0.21801 0.23974 1.28000
Mn	Mn	0.74129 0.36045 0.60330 1.20400
Mn	Mn	-0.03249 0.74305 0.77058 1.26500
Mn	Mn	-0.05520 -0.02585 0.00527 1.24800
C 	C 	0.06521 0.53830 0.27412 0.08400
N 	N 	0.06902 0.50257 0.32213 -0.24600
N 	N 	0.96196 0.36923 0.26499 -0.19600
N 	N 	0.89479 0.32507 0.18753 -0.06600
N 	N 	0.95614 0.42774 0.19108 -0.09000
N 	N 	0.72679 0.00779 0.03742 -0.13600
N 	N 	0.81697 0.04561 0.07422 -0.22300
N 	N 	0.81446 -0.05233 0.98789 -0.17900
N 	N 	0.72212 0.84323 0.89059 -0.09800
C 	C 	0.66897 0.88378 0.92362 0.14000
C 	C 	-0.08227 -0.03194 0.23560 0.05600
N 	N 	-0.08013 0.07560 0.21237 -0.21000
N 	N 	-0.10454 0.04582 0.26783 -0.10500
N 	N 	0.05770 0.20149 0.11073 -0.24600
N 	N 	0.05952 0.27743 0.20832 -0.21900
N 	N 	0.16348 0.39525 0.29398 -0.20800
N 	N 	0.22979 0.38759 0.24959 -0.12400
N 	N 	-0.04762 0.01727 0.14614 -0.19900
N 	N 	-0.04279 0.95482 0.16280 -0.07900
C 	C 	0.17099 0.29540 1.14071 0.12400
N 	N 	0.90367 0.49284 0.70322 -0.25500
N 	N 	-0.00982 0.63235 0.75476 -0.21000
N 	N 	0.08847 0.69015 0.80290 -0.05700
N 	N 	0.06660 0.58828 0.78589 -0.10000
N 	N 	0.18807 0.98531 0.97565 -0.09000
N 	N 	0.08829 0.92920 0.93650 -0.20600
N 	N 	0.07544 1.00256 0.02173 -0.19700
N 	N 	0.16834 0.11313 0.12013 -0.11400
N 	N 	0.94564 0.02074 0.87318 -0.11600
N 	N 	0.93887 0.93944 0.87316 -0.18200
N 	N 	0.94630 0.85586 0.78688 -0.19300
N 	N 	0.96333 0.88601 0.73105 -0.10800
N 	N 	0.83174 0.74315 0.89139 -0.21400
N 	N 	0.84329 0.66380 0.80750 -0.19000
N 	N 	0.75687 0.51854 0.74357 -0.21400
N 	N 	0.68531 0.49644 0.78301 -0.11300
Cl	Cl	0.06578 0.41944 0.42816 -0.78800
Cl	Cl	0.82258 0.51585 0.58593 -0.76800
C 	C 	0.95115 0.46625 0.72531 0.13300
C 	C 	0.23691 0.09951 0.08968 0.10900
C 	C 	0.95923 0.98584 0.78412 0.16700
C 	C 	0.73160 0.63680 -0.12503 0.10100
C 	C 	0.71170 0.68051 -0.02688 -0.16500
C 	C 	0.59575 0.57689 -0.03987 0.03200
C 	C 	0.54486 0.44257 -0.07832 -0.07200
C 	C 	0.58749 0.37493 0.86565 -0.10700
C 	C 	0.45781 0.37689 0.94362 0.08300
C 	C 	0.37646 0.20974 0.86981 -0.18500
C 	C 	0.44618 0.46674 0.03057 -0.06800
C 	C 	0.37968 0.42037 0.08182 -0.07400
C 	C 	0.26605 0.36337 1.04312 -0.05300
C 	C 	0.22508 0.40132 1.13108 -0.00900
N 	N 	0.31438 0.57166 0.24552 -0.17200
C 	C 	0.49871 0.60193 0.07003 0.03400
C 	C 	0.49793 0.71080 0.16800 -0.17500
C 	C 	0.55903 0.64256 0.02178 -0.02000
C 	C 	0.59723 0.77107 0.04995 -0.14600
H 	H 	0.76633 0.69896 0.02033 0.07100
H 	H 	0.74790 0.79179 0.02625 0.06000
H 	H 	0.54647 0.29875 0.77352 0.02900
H 	H 	0.56962 0.30836 0.87568 0.03500
H 	H 	0.68172 0.46682 0.90697 0.05400
H 	H 	0.29730 0.15826 0.87422 0.05200
H 	H 	0.34779 0.13853 0.77791 0.04200
H 	H 	0.41848 0.19399 0.89178 0.05400
H 	H 	0.43358 0.51690 0.17609 0.03800
H 	H 	0.36282 0.33140 0.05938 0.02800
H 	H 	0.27007 0.40657 1.01475 0.03800
H 	H 	0.19903 0.23735 0.96784 0.02800
H 	H 	0.15328 0.37152 1.09202 0.03400
H 	H 	0.27236 0.59612 0.28537 0.01100
H 	H 	0.38282 0.62231 0.31022 0.03400
H 	H 	0.44744 0.71264 0.13817 0.04300
H 	H 	0.58700 0.82821 0.23523 0.04600
H 	H 	0.46249 0.68255 0.21059 0.05900
H 	H 	0.53675 0.77733 0.06096 0.04000
H 	H 	0.68441 0.88362 0.12721 0.04000
H 	H 	0.60040 0.74837 -0.02311 0.05500
C 	C 	0.89014 0.34433 0.71448 -0.14100
C 	C 	0.95591 0.41874 0.82851 0.05800
C 	C 	1.02740 0.40739 0.83905 -0.01600
C 	C 	1.02333 0.29947 0.73257 -0.15600
C 	C 	1.10744 0.50382 0.94963 0.07200
C 	C 	1.19883 0.51375 0.96154 -0.16100
C 	C 	0.10252 0.59224 0.04703 -0.07700
C 	C 	0.19120 0.70399 0.16869 -0.06800
C 	C 	1.17478 0.62238 0.19209 -0.05000
C 	C 	0.16169 0.67394 0.29937 -0.06100
N 	N 	0.26970 0.79684 0.40391 -0.16700
C 	C 	0.01857 0.58416 0.03309 0.04400
C 	C 	-0.00271 0.65300 0.13016 -0.18000
C 	C 	-0.04474 0.51268 -0.07191 -0.05300
C 	C 	-0.10916 0.54218 -0.07689 -0.14600
H 	H 	-0.20229 0.27330 0.68597 -0.01700
H 	H 	0.88782 0.26210 0.64227 0.04200
H 	H 	1.07289 0.28712 0.74728 0.06100
H 	H 	1.05732 0.34170 0.69762 0.06700
H 	H 	0.93445 0.18209 0.66785 0.05200
H 	H 	1.15920 0.40822 0.92904 0.06200
H 	H 	1.23759 0.52452 0.91071 0.06800
H 	H 	0.26992 0.61124 1.04927 0.05100
H 	H 	0.19353 0.78983 0.23517 0.03200
H 	H 	0.27882 0.78012 0.18394 0.02000
H 	H 	1.09967 0.49570 0.11432 0.04000
H 	H 	1.25062 0.64718 0.20295 0.03400
H 	H 	1.13323 0.72324 0.31713 0.05400
H 	H 	0.26167 0.77901 0.45135 -0.03100
H 	H 	0.33577 0.81567 0.38951 0.03500
H 	H 	-0.09152 0.59435 0.10032 0.05200
H 	H 	0.05904 0.77636 0.18590 0.05800
H 	H 	0.00819 0.64117 0.18100 0.05800
H 	H 	-0.08898 0.63516 0.00827 0.04800
H 	H 	-0.08141 0.58733 -0.10904 0.04300
H 	H 	0.79757 0.43396 -0.13292 0.02500
C 	C 	0.36026 0.21721 0.16971 -0.16000
C 	C 	0.40599 0.15117 0.12536 -0.00800
C 	C 	0.48991 0.20066 0.09492 -0.01900
C 	C 	0.52209 0.30269 1.09041 -0.07200
C 	C 	0.54036 0.15147 0.06622 -0.03600
C 	C 	0.64810 0.23361 1.06160 -0.09700
C 	C 	0.48918 1.02655 0.04222 0.01100
C 	C 	0.54258 0.97259 0.01368 -0.07900
C 	C 	0.53091 0.88897 0.89348 -0.04500
C 	C 	0.55431 0.79448 0.84455 -0.02100
N 	N 	0.46024 0.65370 0.80906 -0.16500
C 	C 	0.39208 0.95925 0.05363 0.00200
C 	C 	0.31963 0.80600 0.00400 -0.15900
C 	C 	0.36061 1.03374 0.10887 0.03700
C 	C 	0.28067 0.99056 0.15244 -0.17200
H 	H 	0.40442 0.31048 0.18214 0.05700
H 	H 	0.37620 1.27486 0.25631 0.08000
H 	H 	0.57006 0.31262 1.04570 0.04000
H 	H 	0.57262 0.41870 0.17800 0.02600
H 	H 	0.44314 0.25416 0.04348 0.01900
H 	H 	0.62473 0.17652 0.97346 0.04000
H 	H 	0.70095 0.35620 1.12327 0.05900
H 	H 	0.70513 0.23596 0.08622 0.03800
H 	H 	0.50750 0.89857 0.02109 0.03700
H 	H 	0.63264 0.07448 0.08190 0.03200
H 	H 	0.44280 0.80985 0.83109 0.03900
H 	H 	0.59001 0.97453 0.89584 0.04100
H 	H 	0.55552 0.76000 0.76638 0.03100
H 	H 	0.47620 0.59021 0.77357 0.07400
H 	H 	0.45790 0.68244 -0.11881 0.05200
H 	H 	0.22909 0.74110 -0.02432 0.06300
H 	H 	0.35207 0.82418 0.06925 0.04600
H 	H 	0.31940 0.73203 -0.07417 0.05000
H 	H 	0.27039 0.92224 0.15616 0.05800
H 	H 	0.31666 1.09596 0.24170 0.06300
H 	H 	0.19493 0.92385 0.09779 0.07300
C 	C 	1.00251 0.08722 0.77607 -0.18000
C 	C 	0.99911 0.02706 0.66439 0.02400
C 	C 	0.10189 1.09306 0.66185 -0.01200
C 	C 	0.20779 1.18211 0.75245 -0.11400
C 	C 	0.10551 1.07161 0.57142 0.00800
C 	C 	0.22075 1.16960 0.58245 -0.14200
C 	C 	1.00208 0.95107 0.46839 -0.00900
C 	C 	1.00791 0.89875 0.36084 -0.03200
C 	C 	0.01822 -0.02332 0.33703 -0.12500
C 	C 	0.90457 -0.09065 0.27956 0.04900
N 	N 	0.81517 -0.25825 0.18564 -0.19600
C 	C 	0.89600 0.86827 0.46473 0.02500
C 	C 	0.78340 0.72267 0.35289 -0.12500
C 	C 	0.89638 -0.07965 0.56727 -0.00500
C 	C 	0.79064 -0.13054 0.57802 -0.19300
H 	H 	0.95653 1.11653 0.79545 0.07800
H 	H 	1.08979 0.19775 0.84902 0.06900
H 	H 	0.26661 0.30752 0.81854 0.03800
H 	H 	0.25172 1.15324 0.71180 0.05000
H 	H 	0.18643 0.14750 0.79274 0.03400
H 	H 	0.21855 0.18787 0.53403 0.03800
H 	H 	0.28667 1.28641 0.67248 0.06100
H 	H 	0.24709 1.11360 0.55090 0.04900
H 	H 	0.93621 0.77353 0.28472 0.03800
H 	H 	1.08192 0.91864 0.36670 0.03500
H 	H 	0.07875 0.10144 0.41798 0.04800
H 	H 	0.05566 -0.03570 0.28039 0.04100
H 	H 	-0.11944 -0.05402 0.34694 0.00400
H 	H 	0.73467 -0.30593 0.15720 0.07000
H 	H 	0.83021 0.69679 0.11767 0.08100
H 	H 	0.71587 -0.35134 0.35714 0.03500
H 	H 	0.78630 0.64562 0.28190 0.05100
H 	H 	0.75534 -0.24931 0.32985 0.04100
H 	H 	0.77549 0.82635 0.61024 0.08000
H 	H 	0.80662 0.97031 0.64178 0.06800
H 	H 	0.71193 -0.21653 0.50015 0.05100
