data_crystal

_cell_length_a 24.11410
_cell_length_b 24.75480
_cell_length_c 32.75580
_cell_angle_alpha 88.70180
_cell_angle_beta  89.49500
_cell_angle_gamma 139.66710

_symmetry_space_group_name_	'P 1'
_symmetry_space_group_name_H-M	'P 1'

loop_
_symmetry_equiv_pos_as_xyz
  x,y,z

loop_
_atom_site_label
_atom_site_type_symbol
_atom_site_fract_x
_atom_site_fract_y
_atom_site_fract_z
_atom_site_charge
Eu	Eu	0.33385 0.64024 0.45845 1.92800
O 	O 	0.23055 0.59912 0.53084 -0.26900
C 	C 	0.41186 0.80957 0.46559 0.39000
O 	O 	0.43625 0.61530 0.44265 -0.29700
O 	O 	0.31159 0.53608 0.47873 -0.42400
O 	O 	0.45029 0.73479 0.38441 -0.28900
O 	O 	0.43612 0.80049 0.49443 -0.28600
O 	O 	0.35602 0.74464 0.43916 -0.38700
O 	O 	0.19121 0.55064 0.46770 -0.37600
C 	C 	0.17195 0.55076 0.50778 0.38900
O 	O 	0.31356 0.60392 0.39227 -0.39800
C 	C 	0.38641 0.67100 0.36815 0.34800
C 	C 	0.38117 0.55585 0.46656 0.33700
Eu	Eu	0.65810 0.35265 0.97337 1.81100
O 	O 	0.60071 0.43091 0.96052 -0.25000
C 	C 	0.58626 0.20521 1.03010 0.28000
O 	O 	0.72827 0.37313 0.88078 -0.22700
O 	O 	0.68919 0.42101 0.91275 -0.40700
O 	O 	0.77219 0.34406 0.94652 -0.26900
O 	O 	0.55666 0.15919 1.06048 -0.14000
O 	O 	0.62258 0.28315 1.03433 -0.38400
O 	O 	0.67882 0.44588 1.00798 -0.39100
C 	C 	0.65627 0.47512 0.98555 0.33000
O 	O 	0.80020 0.43940 0.98189 -0.36600
C 	C 	0.82247 0.40527 0.96713 0.39100
C 	C 	0.69026 0.38798 0.87931 0.30800
Eu	Eu	0.53150 0.24949 0.56313 1.93300
O 	O 	0.65332 0.24821 0.57574 -0.26600
C 	C 	0.49122 0.15029 0.49029 0.33000
O 	O 	0.43928 0.16957 0.64504 -0.28200
O 	O 	0.57442 0.29543 0.62756 -0.39500
O 	O 	0.40770 0.23897 0.53311 -0.26200
O 	O 	0.50216 0.12601 0.51805 -0.27200
O 	O 	0.49165 0.20562 0.49808 -0.41600
O 	O 	0.67066 0.34129 0.54209 -0.40500
C 	C 	0.70141 0.31469 0.55625 0.34500
O 	O 	0.54594 0.35020 0.54844 -0.38000
C 	C 	0.47078 0.31489 0.53306 0.39100
C 	C 	0.50949 0.23427 0.65643 0.40100
Eu	Eu	0.44171 0.69840 0.03355 1.90200
O 	O 	0.34210 0.66645 0.96320 -0.25800
C 	C 	0.44186 0.58024 0.00785 0.36300
O 	O 	0.54663 0.86543 0.06702 -0.25700
O 	O 	0.44079 0.78902 0.02260 -0.38900
O 	O 	0.53249 0.73351 0.10833 -0.22900
O 	O 	0.39147 0.55898 0.98288 -0.23000
O 	O 	0.44751 0.61148 0.04432 -0.38000
O 	O 	0.29930 0.58862 0.02096 -0.39900
C 	C 	0.28260 0.60603 -0.01440 0.33600
O 	O 	0.40821 0.68567 0.10098 -0.37100
C 	C 	0.47264 0.71274 0.12493 0.39100
C 	C 	0.50872 0.86341 0.04147 0.39100
C 	C 	0.38503 0.66368 0.32249 -0.20300
C 	C 	0.46899 0.74426 0.30027 0.04300
C 	C 	0.46764 0.73292 0.25500 -0.08400
C 	C 	0.51751 0.72841 0.23762 0.23400
F 	F 	0.56536 0.73105 0.26138 -0.36000
C 	C 	0.51878 0.72134 0.19548 0.30300
F 	F 	0.56766 0.71706 0.17989 -0.34700
C 	C 	0.46956 0.71785 0.16982 -0.18500
C 	C 	0.41882 0.72132 0.18741 0.30400
F 	F 	0.37149 0.71955 0.16380 -0.35900
C 	C 	0.41799 0.72886 0.22952 0.23200
F 	F 	0.37009 0.73416 0.24534 -0.35900
H 	H 	0.33074 0.64755 0.31091 0.15300
H 	H 	0.37313 0.61161 0.31617 0.13100
H 	H 	0.52348 0.76297 0.31406 0.09800
H 	H 	0.47936 0.79579 0.30494 0.09500
C 	C 	0.64665 0.37299 0.84103 -0.20000
C 	C 	0.58103 0.28147 0.82895 0.03700
C 	C 	0.56250 0.27175 0.78415 -0.08000
C 	C 	0.48090 0.22651 0.77125 0.23000
F 	F 	0.41803 0.19365 0.79895 -0.36000
C 	C 	0.46307 0.21362 0.72979 0.30800
F 	F 	0.38358 0.16879 0.71830 -0.36000
C 	C 	0.52710 0.24727 0.70036 -0.20100
C 	C 	0.60876 0.29274 0.71332 0.30500
F 	F 	0.67092 0.32291 0.68579 -0.36800
C 	C 	0.62595 0.30408 0.75475 0.22600
F 	F 	0.70405 0.34448 0.76635 -0.35900
H 	H 	0.61215 0.38621 0.84649 0.12300
H 	H 	0.69708 0.41740 0.81655 0.15000
H 	H 	0.52185 0.24209 0.84841 0.07200
H 	H 	0.60510 0.25797 0.83530 0.08300
C 	C 	0.79445 0.37013 0.54774 -0.19300
C 	C 	0.81793 0.32988 0.56129 0.03300
C 	C 	0.90954 0.38537 0.54806 -0.07800
C 	C 	0.93035 0.39043 0.50688 0.22700
F 	F 	0.86794 0.34325 0.47909 -0.36200
C 	C 	1.01518 0.44372 0.49386 0.30800
F 	F 	0.03197 0.44664 0.45366 -0.36300
C 	C 	0.08155 0.49343 0.52188 -0.19500
C 	C 	0.06015 0.48725 0.56345 0.29600
F 	F 	0.12122 0.53256 0.59197 -0.35600
C 	C 	0.97516 0.43390 0.57627 0.23500
F 	F 	0.95698 0.43043 0.61633 -0.35200
H 	H 	0.83465 0.42936 0.56377 0.13400
H 	H 	0.80749 0.38494 0.51430 0.14100
H 	H 	0.77459 0.26787 0.54784 0.11100
H 	H 	0.80876 0.31928 0.59501 0.11200
C 	C 	0.58305 0.17706 0.98906 -0.15800
C 	C 	0.64274 0.17214 0.98645 0.02100
C 	C 	0.60077 0.08972 1.00323 -0.06400
C 	C 	0.62408 0.08424 0.04093 0.23200
F 	F 	0.67902 0.15123 0.06472 -0.34800
C 	C 	0.59250 0.01015 0.05395 0.32700
F 	F 	0.61688 0.00744 0.09042 -0.34500
C 	C 	0.53670 0.93989 0.02957 -0.21300
C 	C 	0.51123 0.94486 0.99249 0.29400
F 	F 	0.45791 0.87909 0.96787 -0.36900
C 	C 	0.54295 0.01899 0.97958 0.24200
F 	F 	0.52031 0.02297 0.94278 -0.36300
H 	H 	0.60400 0.22249 0.96490 -0.04000
H 	H 	0.51585 0.11588 0.98300 0.11400
H 	H 	0.70266 0.22505 1.00245 0.10700
H 	H 	0.66262 0.18054 0.95392 0.10800
C 	C 	0.70344 0.56233 0.99193 -0.19300
C 	C 	0.68547 0.59431 0.96033 0.04400
C 	C 	0.61789 0.58347 0.97548 -0.08700
C 	C 	0.53672 0.52570 0.95825 0.23800
F 	F 	0.51501 0.47381 0.92966 -0.36200
C 	C 	0.47804 0.52242 -0.03031 0.29300
F 	F 	0.40036 0.46617 -0.04759 -0.35700
C 	C 	0.49936 0.57668 -0.00130 -0.19400
C 	C 	0.57947 0.63229 0.01698 0.28800
F 	F 	0.60292 0.68620 0.04472 -0.38000
C 	C 	0.63800 0.63566 1.00540 0.23200
F 	F 	0.71635 0.69293 1.02203 -0.36500
H 	H 	0.77324 0.60500 0.98950 0.12500
H 	H 	0.68917 0.56517 1.02361 0.14500
H 	H 	0.66962 0.56562 0.93052 0.09000
H 	H 	0.74557 0.66220 0.95377 0.08200
C 	C 	0.38820 0.50485 0.48419 -0.20700
C 	C 	0.46245 0.52747 0.46452 0.04300
C 	C 	0.46483 0.47257 0.48263 -0.08700
C 	C 	0.52918 0.50478 0.50922 0.23100
F 	F 	0.59052 0.58596 0.51937 -0.36400
C 	C 	0.53080 0.45349 0.52584 0.30100
F 	F 	0.59334 0.48665 0.55185 -0.36300
C 	C 	0.46791 0.36874 0.51613 -0.19500
C 	C 	0.40361 0.33677 0.48937 0.30100
F 	F 	0.34279 0.25604 0.47840 -0.35800
C 	C 	0.40246 0.38831 0.47264 0.23000
F 	F 	0.34070 0.35595 0.44626 -0.36600
H 	H 	0.32658 0.43784 0.48023 0.14900
H 	H 	0.39778 0.51497 0.51745 0.12200
H 	H 	0.52368 0.59439 0.46905 0.09400
H 	H 	0.45455 0.51939 0.43103 0.09000
C 	C 	0.19175 0.55147 -0.02467 -0.20400
C 	C 	0.14527 0.54570 0.01092 0.04300
C 	C 	0.06263 0.51039 -0.00190 -0.08000
C 	C 	0.05225 0.55917 -0.00111 0.22800
F 	F 	0.11752 0.64004 0.00951 -0.35800
C 	C 	-0.02560 0.52513 0.98883 0.30300
F 	F 	0.96706 0.57420 0.99005 -0.36000
C 	C 	0.90568 0.44204 0.97692 -0.19500
C 	C 	0.91667 0.39369 0.97555 0.31300
F 	F 	0.85205 0.31313 0.96445 -0.37200
C 	C 	-0.00621 0.42715 -0.01338 0.22300
F 	F 	0.00054 0.37755 -0.01324 -0.36400
H 	H 	0.15827 0.48836 -0.03114 0.15400
H 	H 	0.19187 0.57796 0.94735 0.14300
H 	H 	0.18895 0.60890 0.02295 0.09500
H 	H 	0.13047 0.50510 0.03631 0.09100
C 	C 	0.47580 0.11983 0.44784 -0.18700
C 	C 	0.53988 0.12361 0.43380 0.02200
C 	C 	0.50517 0.04157 0.44307 -0.02800
C 	C 	0.53432 1.03207 0.47615 0.19000
F 	F 	0.59339 0.09595 0.50104 -0.34900
C 	C 	0.50293 0.95649 0.48403 0.31200
F 	F 	0.53256 0.95031 0.51669 -0.36700
C 	C 	0.44239 0.88870 0.45852 -0.20600
C 	C 	0.41307 0.89845 0.42543 0.31500
F 	F 	0.35471 0.83532 0.39995 -0.36500
C 	C 	0.44399 0.97391 0.41795 0.18100
F 	F 	0.41487 -0.01877 0.38559 -0.34200
H 	H 	0.48233 0.15994 0.42627 0.12800
H 	H 	0.40838 0.05528 0.44659 0.13700
H 	H 	0.60318 0.17656 0.44764 0.09400
H 	H 	0.55247 0.13739 0.40025 0.09600
