data_crystal

_cell_length_a 21.19590
_cell_length_b 17.17490
_cell_length_c 17.46840
_cell_angle_alpha 93.24690
_cell_angle_beta  82.41310
_cell_angle_gamma 101.67480

_symmetry_space_group_name_	'P 1'
_symmetry_space_group_name_H-M	'P 1'

loop_
_symmetry_equiv_pos_as_xyz
  x,y,z

loop_
_atom_site_label
_atom_site_type_symbol
_atom_site_fract_x
_atom_site_fract_y
_atom_site_fract_z
_atom_site_charge
Nd	Nd	0.19251 0.71226 1.01734 2.27900
O 	O 	0.11234 0.68097 0.93560 -0.46600
Nd	Nd	0.15690 0.60289 0.83830 2.47500
O 	O 	0.13829 0.72832 0.82061 -0.35900
C 	C 	0.11128 0.56250 1.01774 0.26100
C 	C 	0.27953 0.62966 0.92924 0.38800
C 	C 	0.10749 0.76946 1.12769 0.40200
O 	O 	0.14771 0.58878 0.06506 -0.40400
O 	O 	0.10900 0.62139 0.96586 -0.46100
O 	O 	0.13932 0.71853 0.14021 -0.46200
O 	O 	0.11840 0.79140 1.05889 -0.48200
C 	C 	0.06304 0.61592 0.74751 0.39600
O 	O 	0.25531 0.66830 0.77777 -0.44300
C 	C 	0.25762 0.62019 0.72049 0.42100
O 	O 	0.20863 0.56494 0.72305 -0.48600
O 	O 	0.06189 0.55463 0.78555 -0.50000
O 	O 	0.11026 0.67179 0.75850 -0.38400
C 	C 	0.11515 0.74393 0.88632 0.29300
O 	O 	0.24564 0.67580 0.89579 -0.67600
O 	O 	0.26452 0.62725 0.99841 -0.50400
Nd	Nd	0.70095 0.78516 0.01910 2.73200
O 	O 	0.67946 0.86825 0.12108 -0.50900
Nd	Nd	0.57089 0.88001 0.12403 2.40500
O 	O 	0.65835 -0.01699 0.10019 -0.23100
C 	C 	0.62097 0.71602 0.14761 0.40100
C 	C 	0.57813 0.76918 -0.02942 0.50300
C 	C 	0.81416 0.77374 0.07614 0.56000
O 	O 	0.64993 0.68277 0.09609 -0.46100
O 	O 	0.64381 0.79860 0.14366 -0.50700
O 	O 	0.78933 0.83353 0.08041 -0.50800
O 	O 	0.77998 0.71570 1.04473 -0.47500
C 	C 	0.60188 0.97419 0.25367 0.45000
O 	O 	0.49956 -0.04168 0.09566 -0.45600
C 	C 	0.54266 0.02054 0.08019 0.36900
O 	O 	0.59950 0.01042 0.08668 -0.32600
O 	O 	0.61870 0.99692 0.18614 -0.39200
O 	O 	0.56051 0.91052 0.25612 -0.44800
C 	C 	0.70329 0.94776 0.09865 0.21200
O 	O 	0.60928 0.84129 -0.00209 -0.74800
O 	O 	0.61176 0.71971 -0.03481 -0.55300
Nd	Nd	0.93865 0.16329 0.75394 2.34900
O 	O 	0.84616 0.08748 0.70393 -0.52500
Nd	Nd	0.81121 0.17636 0.63744 2.75300
O 	O 	0.74994 0.11782 0.74134 -0.51200
C 	C 	-0.05164 0.10136 0.60364 0.33200
C 	C 	0.93302 0.30074 0.67996 0.47000
C 	C 	0.96950 1.02264 0.78750 0.34500
O 	O 	-0.00709 0.13498 0.63760 -0.43000
O 	O 	0.88870 0.09605 0.65159 -0.46900
O 	O 	0.00834 0.07596 0.74971 -0.40500
O 	O 	0.91790 0.04417 0.81484 -0.45200
C 	C 	0.81990 0.12591 0.48961 0.36200
O 	O 	0.83697 0.28031 0.55180 -0.44200
C 	C 	0.78183 0.30020 0.56517 0.42000
O 	O 	0.74439 0.25906 0.61613 -0.49300
O 	O 	0.77431 0.09340 0.54043 -0.50200
O 	O 	0.86273 0.18125 0.51577 -0.46700
C 	C 	0.79037 0.08349 0.75955 0.33700
O 	O 	0.87870 0.25642 0.71959 -0.72200
O 	O 	0.98037 0.27205 0.68105 -0.51900
Nd	Nd	0.37458 0.20216 0.39938 2.34900
O 	O 	0.38168 0.31583 0.33351 -0.49400
Nd	Nd	0.27889 0.34272 0.34792 2.60300
O 	O 	0.33441 0.31513 0.22987 -0.30500
C 	C 	0.36298 0.34352 0.48225 0.35000
C 	C 	0.23587 0.17016 0.42429 0.48500
C 	C 	0.50041 0.25310 0.43637 0.48300
O 	O 	0.36519 0.28140 0.51021 -0.39700
O 	O 	0.37125 0.33723 0.40196 -0.50400
O 	O 	0.48609 0.24384 0.36825 -0.44600
O 	O 	0.45120 0.23235 0.48464 -0.43100
C 	C 	0.33301 0.49279 0.28521 0.46900
O 	O 	0.18336 0.34937 0.30504 -0.46100
C 	C 	0.20127 0.33892 0.23414 0.42800
O 	O 	0.25749 0.32172 0.22135 -0.35900
O 	O 	0.33875 0.42818 0.25170 -0.37500
O 	O 	0.30032 0.48135 0.34957 -0.49200
C 	C 	0.38046 0.29603 0.25421 0.31800
O 	O 	0.26954 0.20344 0.35787 -0.69600
O 	O 	0.27290 0.15806 0.46688 -0.51600
C 	C 	0.33625 0.59818 0.88906 -0.19600
C 	C 	0.39713 0.65133 0.91149 0.01300
C 	C 	0.41197 0.65110 0.98760 0.14000
F 	F 	0.37424 0.60045 0.03986 -0.34700
C 	C 	0.46719 0.70102 0.00969 0.34700
F 	F 	0.48026 0.70052 0.08332 -0.51800
C 	C 	0.51084 0.74773 -0.04459 -0.31900
C 	C 	0.49539 0.75111 0.88036 0.33400
F 	F 	0.53757 0.79615 0.82717 -0.39800
C 	C 	0.43817 0.70398 0.85863 0.17500
F 	F 	0.42391 0.70838 0.78576 -0.37200
H 	H 	0.33344 0.53626 0.90622 0.16000
H 	H 	0.33576 0.59653 0.82580 0.13800
C 	C 	0.53097 0.09846 0.05446 -0.15300
C 	C 	0.49378 0.14444 0.11554 -0.00500
C 	C 	0.52511 0.21509 0.15142 0.21100
F 	F 	0.59077 0.23761 0.14015 -0.30100
C 	C 	0.48873 0.26446 0.19745 0.32900
F 	F 	0.51971 0.33336 0.22896 -0.32400
C 	C 	0.42075 0.24450 0.20805 -0.23100
C 	C 	0.38967 0.17297 0.17430 0.28200
F 	F 	0.32395 0.15098 0.18520 -0.40000
C 	C 	0.42580 0.12345 0.12892 0.19600
F 	F 	0.39409 0.05631 0.09521 -0.36600
H 	H 	0.57916 0.13609 0.03569 0.16700
H 	H 	0.50564 0.08784 0.00193 0.14400
C 	C 	0.76178 0.36529 0.52508 -0.17000
C 	C 	0.69345 0.34003 0.50153 0.00800
C 	C 	0.63892 0.32330 0.55792 0.20500
F 	F 	0.64570 0.33408 0.63414 -0.33800
C 	C 	0.57651 0.29655 0.53674 0.32300
F 	F 	0.52574 0.28188 0.59360 -0.35000
C 	C 	0.56660 0.28587 0.45831 -0.21500
C 	C 	0.62032 0.30842 0.40194 0.34400
F 	F 	0.61254 0.30493 0.32591 -0.30100
C 	C 	0.68286 0.33555 0.42334 0.22200
F 	F 	0.73322 0.35676 0.36718 -0.30900
H 	H 	0.76284 0.41811 0.56507 0.14700
H 	H 	0.79831 0.38312 0.47421 0.16500
C 	C 	0.77141 0.99297 1.07703 -0.25100
C 	C 	0.77909 0.01641 0.99360 0.04500
C 	C 	0.77743 0.09474 0.97595 0.17700
F 	F 	0.77108 0.15091 1.03283 -0.34300
C 	C 	0.78137 0.11565 0.89927 0.27700
F 	F 	0.78209 0.19241 0.88359 -0.41600
C 	C 	0.78567 0.05849 0.83899 -0.20500
C 	C 	0.78728 0.98055 0.85575 0.27100
F 	F 	0.79314 0.92524 0.79789 -0.40800
C 	C 	0.78506 0.95997 0.93239 0.15100
F 	F 	0.78949 0.88493 0.94599 -0.55300
H 	H 	0.77747 0.04675 0.11580 0.20300
H 	H 	0.81096 0.96475 0.08832 0.17400
C 	C 	0.82341 0.10345 0.40519 -0.13900
C 	C 	0.75744 0.06872 0.38056 -0.03700
C 	C 	0.71722 0.11883 0.36169 0.26500
F 	F 	0.73591 0.19859 0.37023 -0.35700
C 	C 	0.66080 1.08745 0.32753 0.24800
F 	F 	0.62675 1.13753 0.30161 -0.37400
C 	C 	0.64269 1.00503 0.31443 -0.19700
C 	C 	0.68111 0.95464 0.33739 0.25600
F 	F 	0.66812 0.87550 0.31954 -0.34800
C 	C 	0.73826 -0.01376 0.36934 0.26800
F 	F 	0.77733 -0.06341 0.38393 -0.35200
H 	H 	0.84558 0.15740 0.37136 0.15300
H 	H 	0.85706 0.06132 0.39157 0.13100
C 	C 	0.31238 0.62888 0.65586 -0.18700
C 	C 	0.32350 0.55223 0.61289 0.00200
C 	C 	0.35190 0.55689 0.53535 0.19600
F 	F 	0.36625 0.62746 0.49945 -0.34400
C 	C 	0.36791 0.48985 0.49462 0.30100
F 	F 	0.40244 0.49879 0.42351 -0.39100
C 	C 	0.35162 0.41526 0.52828 -0.24000
C 	C 	0.32436 0.40999 0.60615 0.31400
F 	F 	0.30907 0.33879 0.64108 -0.36400
C 	C 	0.31280 0.47822 0.64899 0.20400
F 	F 	0.29260 0.47142 0.72573 -0.38900
H 	H 	0.30130 0.67001 0.61499 0.15000
H 	H 	0.35798 0.65823 0.67841 0.16500
C 	C 	0.07563 0.47709 1.01634 -0.13200
C 	C 	0.10315 0.42780 0.06853 -0.01400
C 	C 	0.07047 0.40599 0.14193 0.21400
F 	F 	0.01090 0.42288 0.16519 -0.33000
C 	C 	0.10055 0.37122 0.19404 0.31400
F 	F 	0.06887 0.35557 0.26604 -0.34000
C 	C 	0.16396 0.35678 0.17358 -0.19700
C 	C 	0.19493 0.37404 0.09845 0.31200
F 	F 	0.25617 0.36183 0.07675 -0.33600
C 	C 	0.16519 0.41002 0.04688 0.21000
F 	F 	0.19846 0.43182 -0.02294 -0.40500
H 	H 	0.02311 0.47503 1.03421 0.13100
H 	H 	0.08089 0.45223 0.95638 0.03700
C 	C 	-0.03921 0.05976 0.52625 -0.12300
C 	C 	0.03127 0.08613 0.49145 -0.00400
C 	C 	0.07465 0.03328 0.48217 0.20000
F 	F 	0.05406 -0.04422 0.50083 -0.34700
C 	C 	0.14055 0.06078 0.45650 0.34400
F 	F 	0.18151 0.00881 0.44981 -0.38400
C 	C 	0.16477 0.14146 0.44032 -0.27700
C 	C 	0.12148 0.19410 0.44874 0.33700
F 	F 	0.14380 0.27312 0.43954 -0.47000
C 	C 	0.05539 0.16654 0.47359 0.20400
F 	F 	0.01519 0.21941 0.48496 -0.34000
H 	H 	0.94866 -0.00542 0.53523 0.13000
H 	H 	0.92903 0.07270 0.48564 0.09700
C 	C 	0.97613 0.93796 0.78242 -0.15000
C 	C 	0.00922 0.91086 0.84439 -0.02000
C 	C 	0.97723 0.84423 0.88750 0.21900
F 	F 	0.91156 0.82188 0.89396 -0.36100
C 	C 	0.01329 0.79441 0.91543 0.29100
F 	F 	0.98192 0.72406 0.94607 -0.38600
C 	C 	0.08128 0.81114 0.90046 -0.18200
C 	C 	0.11256 0.88500 0.87018 0.29700
F 	F 	0.17832 0.90363 0.85779 -0.40400
C 	C 	0.07670 0.93505 0.84275 0.20800
F 	F 	0.10862 1.00169 0.80569 -0.37100
H 	H 	0.92709 0.90096 0.77972 0.15000
H 	H 	0.00363 0.92758 0.72528 0.12000
C 	C 	0.01397 0.62457 0.69573 -0.17400
C 	C 	-0.01817 0.54443 0.66716 0.00300
C 	C 	0.91892 0.51000 0.70007 0.19000
F 	F 	0.88222 0.55342 0.74757 -0.35300
C 	C 	0.89678 0.42827 0.69229 0.31800
F 	F 	0.83955 0.39468 0.73301 -0.39500
C 	C 	0.93817 0.38092 0.65316 -0.26500
C 	C 	0.99590 0.41686 0.60887 0.33000
F 	F 	1.03459 0.37180 0.56660 -0.35100
C 	C 	0.01831 0.49851 0.61687 0.19300
F 	F 	0.07864 0.53101 0.58284 -0.36600
H 	H 	-0.02162 0.65700 0.72881 0.14700
H 	H 	0.03823 0.66100 0.64565 0.14100
C 	C 	1.06218 0.80098 0.18825 -0.17300
C 	C 	0.99703 0.79209 0.16046 0.01500
C 	C 	0.95155 0.71981 0.16706 0.19700
F 	F 	0.96459 0.65752 0.20250 -0.34000
C 	C 	0.89213 0.71180 0.13744 0.35300
F 	F 	0.84779 0.64292 0.14668 -0.34300
C 	C 	0.87764 0.77635 0.10216 -0.23500
C 	C 	0.92389 0.84768 1.09444 0.33500
F 	F 	0.91243 0.91028 1.05809 -0.39200
C 	C 	0.98281 0.85549 1.12337 0.18300
F 	F 	1.02659 0.92491 1.11390 -0.37400
H 	H 	0.05798 0.76996 0.24317 0.14800
H 	H 	0.08304 0.86445 1.20023 0.11900
C 	C 	0.35828 0.57337 0.25137 -0.18800
C 	C 	0.43163 0.59820 0.24303 0.02400
C 	C 	0.46924 0.55960 0.18709 0.22100
F 	F 	0.44163 0.49321 0.14842 -0.31000
C 	C 	0.53394 0.59383 0.16382 0.34200
F 	F 	0.56614 0.55639 0.10513 -0.33400
C 	C 	0.56205 0.66981 0.19346 -0.20600
C 	C 	0.52747 0.70244 0.25721 0.28800
F 	F 	0.55599 0.76854 0.29482 -0.37900
C 	C 	0.46255 0.66691 0.28201 0.20300
F 	F 	0.42892 0.70209 0.34102 -0.35000
H 	H 	0.34207 0.57264 0.19320 0.15200
H 	H 	0.33526 0.61806 0.28707 0.14600
