data_crystal

_cell_length_a 21.48330
_cell_length_b 12.95110
_cell_length_c 19.94060
_cell_angle_alpha 85.47550
_cell_angle_beta  107.92230
_cell_angle_gamma 111.31990

_symmetry_space_group_name_	'P 1'
_symmetry_space_group_name_H-M	'P 1'

loop_
_symmetry_equiv_pos_as_xyz
  x,y,z

loop_
_atom_site_label
_atom_site_type_symbol
_atom_site_fract_x
_atom_site_fract_y
_atom_site_fract_z
_atom_site_charge
Eu	Eu	0.43064 0.51244 0.89474 1.92800
O 	O 	0.42359 0.55265 1.03786 -0.26700
C 	C 	0.55161 0.44168 0.98231 0.23300
O 	O 	0.49059 0.73827 0.83882 -0.24100
O 	O 	0.38001 0.63473 0.83869 -0.34200
O 	O 	0.45978 0.45755 0.76673 -0.28500
O 	O 	0.57802 0.54198 0.97835 -0.24300
O 	O 	0.48027 0.38840 0.94940 -0.35000
O 	O 	0.34410 0.43959 0.94657 -0.38300
C 	C 	0.36553 0.48249 1.01507 0.30500
O 	O 	0.36323 0.38751 0.80342 -0.32800
C 	C 	0.39807 0.39820 0.75332 0.24300
C 	C 	0.42880 0.72747 0.81960 0.23500
Eu	Eu	0.02389 0.45386 0.12035 1.79700
O 	O 	0.92500 0.42609 0.20714 -0.25100
C 	C 	0.16979 0.63329 0.14812 0.28000
O 	O 	0.92518 0.44168 -0.03325 -0.23300
O 	O 	0.90585 0.38057 0.06986 -0.38500
O 	O 	0.07922 0.42875 0.00423 -0.21000
O 	O 	0.14005 0.65558 0.08939 -0.26300
O 	O 	0.14146 0.52904 0.17320 -0.43100
O 	O 	1.01324 0.36308 0.22163 -0.38100
C 	C 	0.95932 0.37331 0.24227 0.29000
O 	O 	0.03677 0.30539 0.08052 -0.34900
C 	C 	0.06773 0.33538 0.02657 0.22000
C 	C 	0.88510 0.41683 0.00220 0.27900
Eu	Eu	0.55525 0.13870 0.43059 1.77700
O 	O 	0.65782 0.29911 0.36676 -0.20200
C 	C 	0.48206 1.09724 0.27465 0.23300
O 	O 	0.48488 0.25713 0.48695 -0.29500
O 	O 	0.58747 0.23207 0.53534 -0.40900
O 	O 	0.44975 1.01282 0.50065 -0.26900
O 	O 	0.48201 1.18639 0.29031 -0.18200
O 	O 	0.51930 1.04406 0.32545 -0.31800
O 	O 	0.66904 0.16501 0.44380 -0.34000
C 	C 	0.69580 0.25193 0.40280 0.25900
O 	O 	0.54151 0.97807 0.48971 -0.36800
C 	C 	0.48679 0.95696 0.51821 0.27600
C 	C 	0.52930 0.25033 0.54084 0.27900
C 	C 	0.31826 0.44141 1.05960 -0.02400
C 	C 	0.33580 0.49092 0.12637 -0.02800
C 	C 	0.29050 0.45157 0.16790 0.10900
N 	N 	0.30782 0.50420 0.23487 -0.19000
C 	C 	0.22747 0.36179 0.14300 -0.02900
C 	C 	0.20912 0.31081 0.07649 -0.00500
C 	C 	0.14061 0.21426 0.04870 0.44100
F 	F 	0.11502 0.16423 0.10366 -0.39700
F 	F 	0.15262 0.13493 1.01689 -0.36000
C 	C 	0.08471 0.25120 -0.00553 0.37500
F 	F 	0.10772 0.29519 0.93691 -0.37000
F 	F 	0.02395 0.15981 -0.02948 -0.34900
C 	C 	0.25465 0.35183 1.03503 0.03400
H 	H 	0.38444 0.56050 0.14615 0.09700
H 	H 	0.27600 0.47230 0.26747 0.11000
H 	H 	0.35279 0.57480 0.25254 0.11900
H 	H 	0.19236 0.33325 0.17506 0.08800
H 	H 	0.24086 0.31227 0.98398 0.12500
C 	C 	0.94243 0.31654 0.30495 -0.01700
C 	C 	0.99368 0.28966 0.35841 -0.04000
C 	C 	0.97798 0.23469 0.41789 0.12700
N 	N 	1.03121 0.21110 0.47327 -0.19000
C 	C 	0.90992 0.20351 0.42301 -0.02900
C 	C 	0.85758 0.22824 0.36944 0.02800
C 	C 	0.78326 0.19170 0.37363 0.43400
F 	F 	0.77091 0.10179 0.41693 -0.39500
F 	F 	0.73619 0.15728 0.30696 -0.38100
C 	C 	0.77077 0.28688 0.40261 0.37300
F 	F 	0.81418 0.31532 0.47110 -0.36900
F 	F 	0.78650 0.37935 0.36214 -0.35600
C 	C 	0.87469 0.28635 0.31104 0.02800
H 	H 	1.04615 0.31232 0.35443 0.08700
H 	H 	1.02072 0.17397 0.51893 0.15000
H 	H 	1.08256 0.23678 0.47083 0.14900
H 	H 	0.89852 0.16234 0.46945 0.12200
H 	H 	0.83480 0.30626 0.26964 0.13000
C 	C 	0.81676 0.43207 -0.02429 -0.02000
C 	C 	0.79276 0.46303 0.90621 -0.05300
C 	C 	0.73107 0.48670 0.88379 0.10500
N 	N 	0.70728 0.51933 0.81307 -0.19100
C 	C 	0.69238 0.47804 0.93062 -0.03300
C 	C 	0.71404 0.44354 1.00001 -0.00300
C 	C 	0.67392 0.43680 1.05274 0.43500
F 	F 	0.68838 0.54310 1.07655 -0.37300
F 	F 	0.69836 0.38089 0.11117 -0.34200
C 	C 	0.59364 0.37337 1.02362 0.36600
F 	F 	0.58113 0.28317 -0.01851 -0.37400
F 	F 	0.56737 0.33195 1.07955 -0.31500
C 	C 	0.77699 0.42234 0.02184 0.03600
H 	H 	0.82236 0.47051 0.86961 0.09000
H 	H 	0.65988 0.53270 0.79519 0.10800
H 	H 	0.73650 0.53008 0.77816 0.12100
H 	H 	0.64512 0.49678 0.91181 0.06800
H 	H 	0.79632 0.40007 0.07568 0.11300
C 	C 	0.23313 0.71749 0.19409 -0.03900
C 	C 	0.25635 0.69919 0.26627 -0.04200
C 	C 	0.31339 0.77983 0.31146 0.09800
N 	N 	0.33676 0.75933 0.38477 -0.18900
C 	C 	0.34672 0.88162 0.28500 -0.01900
C 	C 	0.32587 0.90131 0.21243 0.00100
C 	C 	0.36124 1.01311 0.18396 0.43900
F 	F 	0.34564 1.09322 0.21043 -0.37200
F 	F 	0.33348 1.01025 0.11103 -0.32600
C 	C 	0.44204 1.04645 0.20128 0.38000
F 	F 	0.45780 0.95442 0.19290 -0.35400
F 	F 	0.46478 1.12444 0.15409 -0.27500
C 	C 	0.26876 0.81790 0.16734 0.03600
H 	H 	0.22959 0.62225 0.28774 0.06200
H 	H 	0.38084 0.81707 0.41860 0.11000
H 	H 	0.31215 0.68439 0.40539 0.11800
H 	H 	0.38846 0.94483 0.32146 0.05400
H 	H 	0.25055 0.83127 0.11155 0.12700
C 	C 	0.47325 0.86822 0.56897 -0.02800
C 	C 	0.50642 0.79031 0.57951 -0.04500
C 	C 	0.49340 0.70621 0.62747 0.11900
N 	N 	0.52728 0.62674 0.63741 -0.18800
C 	C 	0.44655 0.69906 0.66493 -0.02500
C 	C 	0.41340 0.77715 0.65583 0.00100
C 	C 	0.36412 0.77125 0.69803 0.43800
F 	F 	0.31778 0.66304 0.69547 -0.37600
F 	F 	0.32419 0.83578 0.66785 -0.33200
C 	C 	0.40446 0.81317 0.77546 0.37500
F 	F 	0.46119 0.90999 0.77749 -0.35800
F 	F 	0.36056 0.83746 0.80481 -0.30200
C 	C 	0.42734 0.86183 0.60773 0.03100
H 	H 	0.54240 0.79499 0.55053 0.08800
H 	H 	0.52047 0.56652 0.67506 0.13100
H 	H 	0.56160 0.63069 0.60899 0.12000
H 	H 	0.43606 0.63280 0.70115 0.08600
H 	H 	0.40315 0.92388 0.60097 0.12300
C 	C 	0.51815 0.25129 0.61027 -0.04100
C 	C 	0.57231 0.25758 0.67269 -0.04800
C 	C 	0.56092 0.25496 0.73859 0.10700
N 	N 	0.61652 0.26258 0.80187 -0.19300
C 	C 	0.49496 0.24555 0.74210 -0.03200
C 	C 	0.43948 0.23553 0.68003 -0.00500
C 	C 	0.36740 0.22381 0.68300 0.44000
F 	F 	0.35468 0.16697 0.74206 -0.37000
F 	F 	0.31676 0.16097 0.62477 -0.36300
C 	C 	0.35918 0.33709 0.68309 0.36400
F 	F 	0.38269 0.40168 0.63083 -0.40000
F 	F 	0.28873 0.32070 0.66839 -0.33200
C 	C 	0.45182 0.23942 0.61442 0.02800
H 	H 	0.62373 0.26596 0.67061 0.07500
H 	H 	0.60965 0.26507 0.85135 0.13700
H 	H 	0.66508 0.26488 0.79987 0.11300
H 	H 	0.48703 0.24604 0.79326 0.10700
H 	H 	0.40940 0.23234 0.56641 0.10200
