data_crystal

_cell_length_a 33.35870
_cell_length_b 20.52540
_cell_length_c 29.81250
_cell_angle_alpha 90.98820
_cell_angle_beta  77.75750
_cell_angle_gamma 94.92680

_symmetry_space_group_name_	'P 1'
_symmetry_space_group_name_H-M	'P 1'

loop_
_symmetry_equiv_pos_as_xyz
  x,y,z

loop_
_atom_site_label
_atom_site_type_symbol
_atom_site_fract_x
_atom_site_fract_y
_atom_site_fract_z
_atom_site_charge
Mn	Mn	0.17201 0.39642 0.01912 1.25500
Mn	Mn	0.12444 0.46823 0.94361 1.29200
Mn	Mn	0.87157 0.61640 0.96035 1.30900
Mn	Mn	0.91386 0.54412 0.04029 1.28900
Mn	Mn	0.02016 0.50728 -0.00435 1.27100
C 	C 	0.17896 0.29896 0.93944 0.16000
N 	N 	0.16264 0.35117 0.96130 -0.24800
N 	N 	0.14315 0.37720 0.93293 -0.17900
N 	N 	0.14689 0.34263 0.89464 -0.01100
N 	N 	0.16920 0.29292 0.89773 -0.05100
N 	N 	0.07690 0.41311 0.87781 -0.07000
N 	N 	0.07552 0.44410 0.91707 -0.20000
N 	N 	0.03776 0.45791 0.93536 -0.18900
N 	N 	0.01277 0.43584 0.90825 -0.08200
C 	C 	0.03770 0.40807 0.87252 0.22800
C 	C 	0.11433 0.65607 0.97772 0.25200
N 	N 	0.10687 0.55869 0.95546 -0.18600
N 	N 	0.13440 0.60898 0.95312 -0.06500
N 	N 	0.05457 0.44961 0.02640 -0.22700
N 	N 	0.09308 0.44039 0.00643 -0.18800
N 	N 	0.11121 0.41002 0.03420 -0.18500
N 	N 	0.08506 0.39563 0.07303 -0.07900
N 	N 	0.07093 0.57360 0.97981 -0.18300
N 	N 	0.07466 0.63421 0.99580 -0.06900
C 	C 	0.04967 0.41950 0.06805 0.23800
N 	N 	0.87352 0.65864 0.02180 -0.23200
N 	N 	0.89331 0.63451 0.05085 -0.17600
N 	N 	0.88432 0.66463 0.09083 0.00200
N 	N 	0.85804 0.70881 0.08842 -0.02600
N 	N 	0.95769 0.60415 0.10868 -0.06900
N 	N 	0.96122 0.56826 0.07124 -0.19300
N 	N 	1.00013 0.55624 0.05572 -0.17800
N 	N 	1.02319 0.58465 0.08292 -0.03800
N 	N 	0.97110 0.37910 -0.00364 -0.06500
N 	N 	0.97074 0.44029 0.01114 -0.17900
N 	N 	0.93235 0.45403 0.02716 -0.18200
N 	N 	0.90661 0.40282 0.02288 -0.06300
N 	N 	0.98700 0.56486 0.96337 -0.22800
N 	N 	0.94818 0.57503 0.98035 -0.19000
N 	N 	0.93258 0.60526 0.95031 -0.18100
N 	N 	0.96074 0.61738 0.91237 -0.07200
Cl	Cl	0.17910 0.49072 -0.02249 -0.63900
Cl	Cl	0.86223 0.52204 1.00182 -0.59700
C 	C 	0.85061 0.70379 0.04556 0.24400
C 	C 	0.99623 0.61443 0.11582 0.25800
C 	C 	0.93110 0.35620 0.00442 0.20700
C 	C 	0.99474 0.59247 0.92082 0.19000
Mn	Mn	0.56849 0.94483 0.16779 1.28000
Mn	Mn	0.52710 0.05929 0.11177 1.28400
Mn	Mn	0.44373 0.05132 0.83787 1.25100
Mn	Mn	0.47809 0.93492 0.89858 1.29800
Mn	Mn	0.50407 -0.00134 0.00422 1.26700
C 	C 	0.63928 0.05301 0.14401 0.19200
N 	N 	0.60041 1.02986 0.14438 -0.20200
N 	N 	0.58518 0.07376 0.12261 -0.18700
N 	N 	0.61350 0.12255 0.10890 -0.01000
N 	N 	0.64788 0.11105 0.12198 -0.03400
N 	N 	0.57294 0.15570 0.04496 -0.07900
N 	N 	0.54349 0.10757 0.05126 -0.18200
N 	N 	0.54042 0.08113 0.01140 -0.18300
N 	N 	0.56949 0.10910 0.97839 -0.05400
C 	C 	0.58926 0.15656 -0.00030 0.26600
C 	C 	0.40660 0.01120 0.11304 0.25400
N 	N 	0.47020 0.03903 0.10126 -0.18300
N 	N 	0.43681 0.03401 0.13432 -0.04900
N 	N 	0.53497 0.94956 0.04342 -0.22400
N 	N 	0.54193 0.97326 0.08269 -0.17900
N 	N 	0.55819 0.92985 0.10380 -0.18200
N 	N 	0.56379 0.87666 0.07853 -0.07600
N 	N 	0.46153 1.01946 0.06174 -0.15100
N 	N 	0.42147 1.00155 0.06779 -0.04000
C 	C 	0.54978 0.88947 0.04036 0.17800
N 	N 	0.40760 -0.02829 0.86509 -0.28100
N 	N 	0.42067 0.92572 0.88719 -0.16600
N 	N 	0.38973 0.88252 0.90458 -0.01200
N 	N 	0.35558 0.90044 0.89399 -0.04400
N 	N 	0.43690 0.83540 0.96682 -0.08800
N 	N 	0.45915 0.89210 0.95973 -0.19400
N 	N 	0.46765 0.91556 0.99833 -0.17900
N 	N 	0.45082 0.87486 0.03246 -0.09300
N 	N 	0.58625 -0.01447 0.93956 -0.07500
N 	N 	0.54569 -0.02453 0.94640 -0.19900
N 	N 	0.53519 0.94837 0.90954 -0.17400
N 	N 	0.56821 0.93958 0.87763 -0.06300
N 	N 	0.47419 0.04904 0.96420 -0.22800
N 	N 	0.46680 0.02379 0.92530 -0.19300
N 	N 	0.45470 0.06834 0.90106 -0.18500
N 	N 	0.45325 0.12441 0.92289 -0.08000
Cl	Cl	0.51186 1.00318 0.17910 -0.59900
Cl	Cl	0.49683 -0.01366 0.82950 -0.69100
C 	C 	0.36720 0.95642 0.86976 0.24600
C 	C 	0.43157 0.82564 1.01227 0.18400
C 	C 	0.59971 0.96224 0.89671 0.27800
C 	C 	0.46544 0.11288 0.96241 0.21100
Mn	Mn	0.13798 0.13115 0.57065 1.27100
Mn	Mn	0.10148 0.99377 0.51874 1.29700
Mn	Mn	0.85837 0.86481 0.43982 1.25100
Mn	Mn	0.89499 0.00913 0.48421 1.27400
Mn	Mn	-0.00271 0.00257 0.50164 1.26100
C 	C 	0.13523 0.02121 0.64179 0.22100
N 	N 	0.12997 0.04247 0.60107 -0.24300
N 	N 	0.11583 0.99020 0.58110 -0.16200
N 	N 	0.11262 0.93835 0.60763 -0.00400
N 	N 	0.12467 0.95621 0.64589 -0.01400
N 	N 	0.05782 0.87197 0.56153 -0.07200
N 	N 	0.05493 0.92414 0.53760 -0.19300
N 	N 	0.01623 0.93017 0.53637 -0.18600
N 	N 	0.99220 0.88230 0.56047 -0.06300
C 	C 	0.01877 0.84630 0.57573 0.23600
C 	C 	0.08840 1.00479 0.38613 0.19900
N 	N 	0.08656 0.99984 0.45706 -0.17200
N 	N 	0.11275 1.00185 0.41686 -0.05600
N 	N 	0.02733 0.07163 0.53683 -0.23300
N 	N 	0.06497 0.06529 0.54255 -0.19600
N 	N 	0.07876 0.11716 0.56328 -0.18600
N 	N 	0.05042 0.15935 0.57275 -0.08600
N 	N 	0.04863 0.00145 0.45121 -0.21100
N 	N 	0.04844 0.00474 0.40700 -0.12300
C 	C 	0.01813 0.13050 0.55678 0.16600
N 	N 	0.86885 0.94925 0.40435 -0.24500
N 	N 	0.88206 0.00479 0.42101 -0.19500
N 	N 	0.88876 0.05090 0.38919 -0.01700
N 	N 	0.88020 0.02543 0.35071 -0.05700
N 	N 	0.93839 0.12775 0.43692 -0.09200
N 	N 	0.94097 0.07788 0.46314 -0.20800
N 	N 	0.97925 0.07380 0.46651 -0.19400
N 	N 	0.00352 0.12085 0.44210 -0.10700
N 	N 	0.94876 0.99350 0.59116 -0.11700
N 	N 	0.94419 1.00350 0.55222 -0.22700
N 	N 	0.90703 0.01086 0.54828 -0.22800
N 	N 	0.93539 -0.00281 0.57480 0.10800
N 	N 	0.96909 0.93316 0.46712 -0.22900
N 	N 	0.93036 0.93497 0.46525 -0.18600
N 	N 	0.91703 0.88070 0.44688 -0.19000
N 	N 	0.94717 0.84226 0.43410 -0.07900
Cl	Cl	0.15270 0.07547 0.50250 -0.66000
Cl	Cl	0.84322 0.92912 0.50378 -0.66800
C 	C 	0.86812 0.96193 0.36076 0.22400
C 	C 	0.97741 0.15418 0.42409 0.18800
C 	C 	0.91739 -0.00966 0.62447 0.15300
C 	C 	0.97981 0.87509 0.44712 0.17900
C 	C 	0.97970 0.16456 0.55832 -0.14400
C 	C 	0.95260 0.16654 0.60669 0.02200
C 	C 	0.97069 0.20830 0.64096 -0.08400
C 	C 	-0.01274 0.17831 0.67428 0.24300
F 	F 	-0.00796 0.11320 0.67241 -0.38100
C 	C 	-0.00163 0.21492 0.71027 0.23400
F 	F 	0.01418 0.18495 0.74207 -0.34000
C 	C 	0.99243 0.28171 0.71410 0.01500
C 	C 	0.00306 0.31901 0.75315 -0.03200
C 	C 	0.04436 0.33736 0.75323 0.25200
F 	F 	0.07416 0.32550 0.71602 -0.35000
C 	C 	0.05538 0.36725 0.79171 0.28600
F 	F 	0.09588 0.38441 0.79006 -0.36500
C 	C 	0.02508 0.37921 0.83116 -0.16500
C 	C 	0.98337 0.36255 0.83036 0.30200
F 	F 	0.95325 0.37322 0.86750 -0.37100
C 	C 	0.97248 0.33256 0.79153 0.26400
F 	F 	0.93226 0.31479 0.79185 -0.32300
C 	C 	0.97724 0.31248 0.68032 0.25200
F 	F 	0.97260 0.37759 0.68299 -0.32200
C 	C 	0.96656 0.27609 0.64378 0.26000
F 	F 	0.95101 0.30663 0.61203 -0.35900
H 	H 	0.98815 0.21508 0.54464 0.12000
H 	H 	0.96082 0.13874 0.53633 0.06200
H 	H 	0.92247 0.18391 0.60430 0.07800
H 	H 	0.94588 0.11608 0.61977 0.07100
C 	C 	0.85785 0.91134 0.32778 -0.20000
C 	C 	0.81333 0.88097 0.34366 0.06900
C 	C 	0.78578 0.90606 0.31514 -0.07600
C 	C 	0.77675 -0.02819 0.31880 0.24000
F 	F 	0.78977 0.01133 0.35064 -0.36900
C 	C 	0.75403 -0.00308 0.28988 0.23500
F 	F 	0.74558 0.06051 0.29379 -0.32800
C 	C 	0.73986 0.95637 0.25729 0.01300
C 	C 	0.71488 0.98178 0.22780 0.02100
C 	C 	0.73258 1.00072 0.18248 0.25500
F 	F 	0.77347 0.99690 0.16563 -0.30700
C 	C 	0.70799 1.02357 0.15450 0.30000
F 	F 	0.72539 1.04165 0.11066 -0.32000
C 	C 	0.66549 1.02612 0.17156 -0.12000
C 	C 	0.64802 0.00637 0.21681 0.22800
F 	F 	0.60726 0.01006 0.23443 -0.43800
C 	C 	0.67268 -0.01515 0.24481 0.22400
F 	F 	0.65541 -0.03334 0.28864 -0.34700
C 	C 	0.74734 0.89023 0.25471 0.26000
F 	F 	0.73192 0.85010 0.22469 -0.32100
C 	C 	0.77021 0.86500 0.28344 0.26600
F 	F 	0.77704 0.80060 0.28029 -0.34700
H 	H 	0.86317 0.93311 0.29288 0.15300
H 	H 	0.87953 0.87277 0.32620 0.09300
H 	H 	0.81358 0.82706 0.34064 0.06500
H 	H 	0.80052 -0.10923 0.38055 -0.00800
C 	C 	0.02229 0.85119 0.43665 -0.16100
C 	C 	0.02187 0.77604 0.43155 0.02100
C 	C 	0.01994 0.75335 0.38339 -0.08600
C 	C 	-0.01537 0.71839 0.37372 0.22300
F 	F 	0.95098 0.70389 0.40762 -0.37200
C 	C 	0.98345 0.69896 0.32872 0.28400
F 	F 	0.94882 0.66535 0.32065 -0.33800
C 	C 	0.01756 0.71418 0.29243 -0.05100
C 	C 	1.01535 0.69644 0.24427 0.02800
C 	C 	0.98141 0.71155 0.22654 0.24100
F 	F 	0.95264 0.74869 0.25105 -0.33700
C 	C 	0.97627 0.68748 0.18381 0.29300
F 	F 	0.94189 0.70056 0.16926 -0.35300
C 	C 	1.00580 0.64971 0.15685 -0.12100
C 	C 	0.04218 0.64169 0.17218 0.31000
F 	F 	0.07320 0.61101 0.14585 -0.30300
C 	C 	0.04631 0.66285 0.21602 0.23900
F 	F 	0.07963 0.64716 0.23165 -0.29700
C 	C 	0.05324 0.74743 0.30256 0.26200
F 	F 	0.08651 0.76426 0.26871 -0.31300
C 	C 	0.05445 0.76619 0.34757 0.24500
F 	F 	0.08940 0.79771 0.35632 -0.38300
H 	H 	0.04040 0.87569 0.40502 0.10700
H 	H 	0.03832 0.86551 0.46441 0.07800
H 	H 	0.05067 0.75996 0.43938 0.09900
H 	H 	-0.00369 0.75181 0.45758 0.09200
C 	C 	0.10365 1.00713 0.33510 -0.12000
C 	C 	0.12331 0.94385 0.31734 0.04300
C 	C 	0.16307 0.95717 0.28221 -0.06300
C 	C 	0.16772 0.93123 0.23757 0.27300
F 	F 	0.13594 0.89536 0.22465 -0.33100
C 	C 	0.20581 0.93933 0.20650 0.24600
F 	F 	0.21019 0.90868 0.16522 -0.29900
C 	C 	0.23963 0.97513 0.21920 0.05700
C 	C 	0.28163 -0.02163 0.18911 -0.07200
C 	C 	0.28960 0.00156 0.14357 0.26400
F 	F 	0.25846 0.01923 0.12480 -0.32100
C 	C 	0.33023 0.00989 0.11782 0.31300
F 	F 	0.33732 0.03471 0.07468 -0.32500
C 	C 	0.36338 -0.00392 0.13743 -0.16800
C 	C 	0.35515 0.97040 0.18209 0.31400
F 	F 	0.38628 0.95398 0.20141 -0.35000
C 	C 	0.31480 0.96067 0.20726 0.28500
F 	F 	0.30808 0.93386 0.24979 -0.32000
C 	C 	0.23416 0.00368 0.26314 0.21600
F 	F 	0.26551 0.04086 0.27596 -0.32500
C 	C 	0.19684 -0.00699 0.29471 0.24100
F 	F 	0.19394 0.01694 0.33790 -0.36900
H 	H 	0.12554 0.05112 0.32636 0.10900
H 	H 	0.07751 1.01338 0.31819 0.10300
H 	H 	0.13017 -0.08471 0.34579 0.07800
H 	H 	0.10036 0.91247 0.30284 0.11100
C 	C 	-0.00963 0.20387 0.38643 -0.16800
C 	C 	-0.01495 0.17222 0.34062 0.04200
C 	C 	-0.01744 0.22206 0.30475 -0.11400
C 	C 	0.94553 0.22713 0.28990 0.27200
F 	F 	0.91080 0.18987 0.30948 -0.35700
C 	C 	0.94418 0.26965 0.25405 0.26800
F 	F 	0.90824 0.27294 0.24013 -0.32100
C 	C 	-0.02022 0.30779 0.23238 -0.02500
C 	C 	-0.01929 0.34723 0.19071 -0.01900
C 	C 	0.99687 0.41271 0.18861 0.25700
F 	F 	1.00224 0.44461 0.22748 -0.32300
C 	C 	1.01359 0.44229 0.14619 0.27900
F 	F 	1.03836 0.49782 0.14576 -0.34600
C 	C 	1.01275 0.40860 0.10497 -0.16200
C 	C 	-0.00900 0.34647 0.10732 0.26500
F 	F 	-0.00783 0.31024 0.06866 -0.39200
C 	C 	-0.02490 0.31594 0.14988 0.23800
F 	F 	-0.04004 0.25237 0.15065 -0.34200
C 	C 	0.01651 0.30366 0.24803 0.24900
F 	F 	0.05182 0.33822 0.22697 -0.33900
C 	C 	0.01785 0.26139 0.28385 0.26200
F 	F 	0.05412 0.25687 0.29688 -0.37300
H 	H 	-0.02883 0.24597 0.39461 0.12000
H 	H 	0.02310 0.22186 0.38413 0.12900
H 	H 	0.01112 0.14183 0.32756 0.06500
H 	H 	-0.04308 0.13771 0.34628 0.07800
C 	C 	0.55175 0.84302 0.00023 -0.16300
C 	C 	0.56675 0.77639 0.00908 0.02600
C 	C 	0.61139 0.78049 0.01338 -0.09200
C 	C 	0.64318 0.79658 0.97505 0.26500
F 	F 	0.63429 0.81094 0.93426 -0.34700
C 	C 	0.68439 0.79479 0.97781 0.26900
F 	F 	0.71443 0.80916 0.94002 -0.31300
C 	C 	0.69456 0.77670 0.01891 -0.01600
C 	C 	0.73745 0.76570 0.02027 0.00100
C 	C 	0.75849 0.80176 0.04984 0.24900
F 	F 	0.74127 0.85254 0.07411 -0.31400
C 	C 	0.79674 0.78421 0.05576 0.31500
F 	F 	0.81579 0.81909 0.08551 -0.33100
C 	C 	0.81422 0.72951 0.03272 -0.18600
C 	C 	0.79337 0.69514 1.00192 0.30000
F 	F 	0.80679 0.63955 0.98140 -0.51200
C 	C 	0.75580 0.71374 0.99529 0.24400
F 	F 	0.73567 0.67738 0.96710 -0.31900
C 	C 	0.66303 0.76198 0.05756 0.25200
F 	F 	0.67215 0.74306 0.09740 -0.33300
C 	C 	0.62181 0.76355 0.05480 0.25600
F 	F 	0.59209 0.74654 0.09234 -0.37800
H 	H 	0.52082 0.83313 -0.00731 0.07700
H 	H 	0.57180 0.86580 -0.03076 0.12700
H 	H 	0.54606 0.75449 0.04030 0.08900
H 	H 	0.56315 0.74210 0.98056 0.09500
C 	C 	0.91573 0.29393 -0.01572 -0.14700
C 	C 	0.88229 0.25336 0.01877 0.02400
C 	C 	0.84038 0.25125 0.00642 -0.09000
C 	C 	0.80744 0.28060 0.03453 0.26800
F 	F 	0.81331 0.31592 0.07185 -0.35200
C 	C 	0.76781 0.27182 0.02528 0.26000
F 	F 	0.73628 0.29812 0.05432 -0.32100
C 	C 	0.76043 0.23358 -0.01229 -0.01700
C 	C 	0.71752 0.21486 -0.01757 0.00700
C 	C 	0.68973 0.26236 -0.01914 0.24900
F 	F 	0.70274 0.32693 -0.02024 -0.31000
C 	C 	0.64793 0.24368 -0.01768 0.30500
F 	F 	0.62130 0.29050 -0.01627 -0.33400
C 	C 	0.63350 0.17721 -0.01558 -0.14100
C 	C 	0.66165 0.12991 -0.01592 0.31000
F 	F 	0.64822 0.06558 -0.01096 -0.37500
C 	C 	0.70309 0.14838 -0.01680 0.24300
F 	F 	0.72837 0.10124 -0.01289 -0.31700
C 	C 	0.79393 0.20769 0.95809 0.27200
F 	F 	0.78824 0.17335 0.92032 -0.30700
C 	C 	0.83335 0.21570 0.96771 0.26900
F 	F 	0.86455 0.18632 0.94033 -0.34500
H 	H 	0.90395 0.30724 0.95373 0.15700
H 	H 	0.94212 0.26403 -0.02836 0.13700
H 	H 	0.89098 0.20220 1.01838 0.11400
H 	H 	0.88110 0.27059 0.05454 0.11400
C 	C 	0.33839 0.00036 0.85652 -0.23600
C 	C 	0.35455 0.02658 0.80749 0.03900
C 	C 	0.31929 0.04180 0.78639 -0.12700
C 	C 	0.29356 0.98996 0.77400 0.28700
F 	F 	0.30114 0.92696 0.77969 -0.35100
C 	C 	0.26008 1.00250 0.75545 0.28500
F 	F 	0.23661 0.95120 0.74238 -0.31800
C 	C 	0.25177 0.06722 0.74869 -0.05000
C 	C 	0.21696 0.07840 0.72721 0.01000
C 	C 	0.17747 0.05021 0.74694 0.23500
F 	F 	0.16915 0.02663 0.79052 -0.32600
C 	C 	0.14800 0.03916 0.72014 0.30700
F 	F 	0.11181 0.00458 0.73837 -0.34600
C 	C 	0.15757 0.05705 0.67349 -0.18000
C 	C 	0.19468 0.09456 0.65604 0.26500
F 	F 	0.20444 1.11360 0.61142 -0.42300
C 	C 	0.22445 0.10474 0.68276 0.21700
F 	F 	0.26215 1.13353 0.66334 -0.30000
C 	C 	0.27813 0.11924 0.75971 0.26100
F 	F 	0.27133 0.18198 0.75216 -0.33400
C 	C 	0.31178 0.10659 0.77847 0.26700
F 	F 	0.33699 0.15753 0.78873 -0.37400
H 	H 	0.30749 -0.02669 0.86071 0.16500
H 	H 	0.33547 0.04234 0.88065 0.14200
H 	H 	0.37611 0.07076 0.80865 -0.00500
H 	H 	0.37238 0.99030 0.78526 0.06900
C 	C 	0.03438 0.59362 0.88574 -0.16800
C 	C 	0.02845 0.56001 0.84070 0.03000
C 	C 	0.01957 0.60632 0.80572 -0.09600
C 	C 	-0.01883 0.60143 0.79277 0.26000
F 	F 	-0.05021 0.55978 0.81514 -0.37000
C 	C 	-0.02487 0.63831 0.75588 0.25500
F 	F 	-0.06165 0.63066 0.74301 -0.32400
C 	C 	0.00743 0.68049 0.73126 -0.01000
C 	C 	0.00354 0.71481 0.68895 -0.01100
C 	C 	0.97534 0.76242 0.69002 0.26000
F 	F 	0.94781 0.77363 0.72936 -0.31000
C 	C 	0.97750 0.80217 0.65139 0.30900
F 	F 	0.95275 0.85199 0.65472 -0.35000
C 	C 	0.00784 0.79453 0.61131 -0.16100
C 	C 	0.03375 0.74368 0.60942 0.29500
F 	F 	0.06326 0.73500 0.57129 -0.36200
C 	C 	0.03135 0.70391 0.64759 0.24700
F 	F 	0.05777 0.65655 0.64495 -0.32200
C 	C 	0.04514 0.68741 0.74569 0.25900
F 	F 	0.07649 0.72944 0.72368 -0.31800
C 	C 	0.05119 0.65058 0.78234 0.26300
F 	F 	0.08851 0.65665 0.79409 -0.35100
H 	H 	0.04770 0.64491 0.87961 0.13700
H 	H 	0.05687 0.56786 0.89926 0.07300
H 	H 	0.05705 0.53673 0.82505 0.08700
H 	H 	0.00381 0.51937 0.84806 0.08700
C 	C 	0.87881 0.02580 0.63915 -0.12100
C 	C 	0.84019 -0.01879 0.63531 0.00100
C 	C 	0.80840 -0.01883 0.67948 -0.12600
C 	C 	0.81121 0.94017 0.71568 0.30200
F 	F 	0.84196 0.89974 0.71081 -0.33500
C 	C 	0.78248 0.94067 0.75719 0.25100
F 	F 	0.78566 0.89988 0.79139 -0.29900
C 	C 	0.75023 0.98186 0.76316 0.02300
C 	C 	0.71635 0.97491 0.80433 0.02400
C 	C 	0.70434 0.02888 0.83224 0.23000
F 	F 	0.72674 0.08770 0.82529 -0.30800
C 	C 	0.66765 0.02340 0.86570 0.28700
F 	F 	0.65418 0.07781 0.88852 -0.35100
C 	C 	0.64274 0.96411 0.87149 -0.11700
C 	C 	0.65617 0.90942 0.84556 0.30900
F 	F 	0.63220 0.85206 0.84954 -0.33200
C 	C 	0.69281 0.91460 0.81269 0.25000
F 	F 	0.70324 0.86193 0.78600 -0.31300
C 	C 	0.74795 0.02409 0.72723 0.21900
F 	F 	0.71684 0.06384 0.73168 -0.32600
C 	C 	0.77691 0.02382 0.68573 0.27700
F 	F 	0.77454 0.06588 0.65192 -0.36700
H 	H 	0.87771 0.04246 0.67500 0.12300
H 	H 	0.87985 0.07107 0.61900 0.08600
H 	H 	0.82746 -0.00145 0.60650 0.08500
H 	H 	0.84759 0.93004 0.62635 0.12300
C 	C 	0.41012 0.76490 1.03639 -0.14800
C 	C 	0.37126 0.77960 1.07178 0.03300
C 	C 	0.33259 0.77580 1.05231 -0.08800
C 	C 	0.31267 0.83234 0.04804 0.26100
F 	F 	0.33083 0.89201 0.05523 -0.35700
C 	C 	0.27348 0.82767 0.03742 0.26200
F 	F 	0.25426 0.88265 0.03499 -0.30800
C 	C 	0.25380 0.76640 1.03056 -0.00600
C 	C 	0.21197 0.75970 1.02053 0.00400
C 	C 	0.20712 0.76811 0.97549 0.24900
F 	F 	0.23948 0.79222 0.94275 -0.32700
C 	C 	0.17059 0.74416 0.96269 0.29700
F 	F 	0.16853 0.74562 0.91774 -0.34100
C 	C 	0.13857 0.71102 0.99470 -0.14200
C 	C 	0.14114 0.71169 1.04112 0.30300
F 	F 	0.11010 0.68239 0.07300 -0.34500
C 	C 	0.17801 0.73455 1.05388 0.25500
F 	F 	0.18176 0.72693 0.09791 -0.31200
C 	C 	0.27468 0.71022 1.03197 0.25800
F 	F 	0.25687 0.65077 1.02324 -0.33700
C 	C 	0.31364 0.71470 1.04295 0.26100
F 	F 	0.33220 0.65916 1.04622 -0.35600
H 	H 	0.40251 0.72818 1.01093 0.13400
H 	H 	0.43199 0.74325 1.05420 0.10700
H 	H 	0.36640 0.74340 1.10012 0.09700
H 	H 	0.37637 0.82793 0.08791 0.08900
C 	C 	0.21233 0.26520 0.95355 -0.15400
C 	C 	0.25419 0.29115 0.92455 0.01800
C 	C 	0.28937 0.27617 0.94615 -0.09500
C 	C 	0.31141 0.32602 0.96638 0.24900
F 	F 	0.29988 0.38808 0.96933 -0.37600
C 	C 	0.34579 0.31226 0.98348 0.26800
F 	F 	0.36693 0.36093 0.00234 -0.32900
C 	C 	0.35828 0.24859 0.98100 -0.02500
C 	C 	0.39595 0.23327 0.99581 0.00100
C 	C 	0.39360 0.18700 0.03043 0.24300
F 	F 	0.35792 0.17283 0.06148 -0.32300
C 	C 	0.42916 0.15801 0.03407 0.28000
F 	F 	0.43270 0.13874 0.07585 -0.39400
C 	C 	0.46392 0.16509 0.99800 -0.15600
C 	C 	0.47016 0.22744 0.97721 0.29400
F 	F 	0.50700 0.24583 0.94936 -0.34900
C 	C 	0.43525 0.25856 0.97234 0.23800
F 	F 	0.43934 0.30768 0.94142 -0.32900
C 	C 	0.33563 0.19860 0.96187 0.24900
F 	F 	0.34756 0.13678 0.95831 -0.37000
C 	C 	0.30157 0.21230 0.94449 0.25700
F 	F 	0.28115 0.16359 0.92475 -0.37400
H 	H 	0.20701 0.21140 0.94936 0.13700
H 	H 	0.21149 0.27588 0.99039 0.05100
H 	H 	0.25835 0.26905 0.88971 0.10600
H 	H 	0.25464 0.34486 0.91975 0.08300
