data_crystal

_cell_length_a 36.62200
_cell_length_b 35.65920
_cell_length_c 39.64060
_cell_angle_alpha 86.52970
_cell_angle_beta  93.49970
_cell_angle_gamma 88.36830

_symmetry_space_group_name_	'P 1'
_symmetry_space_group_name_H-M	'P 1'

loop_
_symmetry_equiv_pos_as_xyz
  x,y,z

loop_
_atom_site_label
_atom_site_type_symbol
_atom_site_fract_x
_atom_site_fract_y
_atom_site_fract_z
_atom_site_charge
Eu	Eu	0.01809 0.48851 0.76238 2.00600
O 	O 	0.08795 0.45885 0.80462 -0.22600
C 	C 	0.01602 0.43395 0.70911 0.38100
O 	O 	0.95184 0.46899 0.79248 -0.19200
O 	O 	0.99386 0.51004 0.80925 -0.31600
O 	O 	0.96463 0.51313 0.69869 -0.20200
O 	O 	-0.00161 0.42156 0.73209 -0.26300
O 	O 	0.03864 0.46382 0.71517 -0.37000
O 	O 	0.07253 0.51455 0.77668 -0.34700
C 	C 	0.09372 0.49227 0.80078 0.39800
O 	O 	0.00406 0.54393 0.73223 -0.35800
C 	C 	0.98598 0.53855 0.70115 0.39900
C 	C 	0.96272 0.48942 0.81434 0.25800
Eu	Eu	0.49909 -0.02120 0.26184 1.96000
O 	O 	0.53559 0.93761 0.32543 -0.20400
C 	C 	0.52009 0.92349 0.21089 0.37700
O 	O 	0.42305 0.00283 0.27731 -0.23000
O 	O 	0.47435 -0.00654 0.31105 -0.36900
O 	O 	0.46485 0.03066 0.20166 -0.15800
O 	O 	0.51426 0.90501 0.23676 -0.24600
O 	O 	0.52242 0.96227 0.21245 -0.35000
O 	O 	0.55599 -0.01878 0.28833 -0.35300
C 	C 	0.55715 0.96238 0.32019 0.39900
O 	O 	0.50250 0.04138 0.24723 -0.29700
C 	C 	0.47789 0.05350 0.22032 0.25700
C 	C 	0.43660 -0.00125 0.30620 0.38900
Eu	Eu	-0.00008 0.50877 0.25921 2.17100
O 	O 	0.04663 0.55006 0.21011 -0.12900
C 	C 	0.01959 0.57690 0.29770 0.25700
O 	O 	0.90821 0.47104 0.19924 -0.07100
O 	O 	0.95917 0.47008 0.23433 -0.32900
O 	O 	1.01057 0.50291 0.33933 -0.11600
O 	O 	-0.01223 0.58342 0.28752 -0.13600
O 	O 	0.03961 0.54855 0.28382 -0.31900
O 	O 	0.04351 0.48827 0.22541 -0.31900
C 	C 	0.05719 0.51793 0.20609 0.29000
O 	O 	0.02032 0.46246 0.29897 -0.34500
C 	C 	1.03021 0.47813 0.32948 0.25700
C 	C 	0.93060 0.48926 0.21477 0.22500
Eu	Eu	0.78070 0.50084 0.02096 1.97600
O 	O 	0.85653 0.48994 0.99445 -0.21200
C 	C 	0.73052 0.43542 1.02290 0.38600
O 	O 	0.84439 0.47660 0.06415 -0.25600
O 	O 	0.82471 0.53519 0.04667 -0.36500
O 	O 	0.69841 0.51918 0.02840 -0.15400
O 	O 	0.74757 0.43499 1.05030 -0.25100
O 	O 	0.73723 0.46358 0.99838 -0.35700
O 	O 	0.80306 0.51216 0.96878 -0.34900
C 	C 	0.84054 0.50465 0.96903 0.39400
O 	O 	0.74461 0.55393 0.00943 -0.31400
C 	C 	0.70768 0.54816 0.01382 0.28100
C 	C 	0.84764 0.51019 0.06698 0.39200
Eu	Eu	0.50277 0.00210 0.75736 2.31000
O 	O 	0.53003 0.05123 0.70001 -0.12600
C 	C 	0.50475 0.07664 0.79123 0.38100
O 	O 	0.43119 0.95387 0.68275 -0.04600
O 	O 	0.47856 0.96108 0.72064 -0.30300
O 	O 	0.52794 0.94737 0.84962 -0.05900
O 	O 	0.48673 0.08445 0.76478 -0.17100
O 	O 	0.52509 0.04299 0.79487 -0.38900
O 	O 	0.55622 0.00117 0.73087 -0.34300
C 	C 	0.55578 0.02862 0.70436 0.27100
O 	O 	0.52801 0.95453 0.79273 -0.31500
C 	C 	0.50996 0.95097 0.82260 0.20200
C 	C 	0.44808 0.97532 0.70028 0.24100
Eu	Eu	0.25572 -0.00258 0.52196 1.98600
O 	O 	0.32671 0.98109 0.49282 -0.16000
C 	C 	0.22193 0.92620 0.49998 0.37700
O 	O 	0.31938 -0.03150 0.56322 -0.25400
O 	O 	0.29841 0.02827 0.55285 -0.37000
O 	O 	0.21920 0.03852 0.57630 -0.22100
O 	O 	0.25198 0.91709 0.51336 -0.23600
O 	O 	0.21350 0.96420 0.49295 -0.35500
O 	O 	0.27925 0.01945 0.47277 -0.31800
C 	C 	0.31410 1.00348 0.47033 0.27400
O 	O 	0.21496 0.04716 0.51942 -0.35600
C 	C 	0.20233 0.05289 0.55111 0.39000
C 	C 	0.32330 0.00150 0.56847 0.39700
Eu	Eu	0.02734 0.75852 0.49991 2.21500
O 	O 	0.99691 0.83500 0.47315 -0.18600
C 	C 	0.01158 0.72862 0.43085 0.37400
O 	O 	0.08779 0.84448 0.54509 -0.06400
O 	O 	0.04187 0.80491 0.53499 -0.34000
O 	O 	0.06181 0.69448 0.54724 -0.11700
O 	O 	1.00264 0.76178 0.42617 -0.20200
O 	O 	1.01588 0.71262 0.46376 -0.35700
O 	O 	0.96909 0.78254 0.49028 -0.36600
C 	C 	0.96873 0.82087 0.48162 0.38800
O 	O 	0.00577 0.72332 0.54387 -0.32900
C 	C 	0.03193 0.69754 0.55904 0.27000
C 	C 	0.07806 0.81571 0.53248 0.22300
Eu	Eu	0.76740 0.01898 0.52028 1.96000
O 	O 	0.70663 0.05292 0.47161 -0.16000
C 	C 	0.82591 0.05443 0.47604 0.25400
O 	O 	0.74868 1.00251 0.59194 -0.22300
O 	O 	0.71269 1.01560 0.54451 -0.35300
O 	O 	0.83181 0.97939 0.56205 -0.14800
O 	O 	0.80521 0.08135 0.47883 -0.17700
O 	O 	0.82213 0.02149 0.49594 -0.31000
O 	O 	0.74085 -0.00080 0.47123 -0.29900
C 	C 	0.71272 0.02385 0.45789 0.28000
O 	O 	0.78091 0.95745 0.53606 -0.30100
C 	C 	0.81750 0.95366 0.54776 0.26600
C 	C 	0.71762 1.00707 0.57920 0.38500
Eu	Eu	0.01276 0.25481 0.49213 1.94300
O 	O 	0.06497 0.16836 0.49769 -0.09100
C 	C 	0.01649 0.33018 0.45177 0.39600
O 	O 	0.93379 0.23460 0.50481 -0.20500
O 	O 	0.98570 0.19950 0.50566 -0.34100
O 	O 	0.98438 0.32700 0.52183 -0.15500
O 	O 	-0.01428 0.31944 0.44522 -0.25600
O 	O 	0.03926 0.30959 0.47599 -0.36300
O 	O 	0.06943 0.22934 0.50870 -0.30200
C 	C 	0.06757 0.19150 0.51908 0.21400
O 	O 	0.00920 0.27250 0.54626 -0.29400
C 	C 	0.99792 0.30999 0.54741 0.29500
C 	C 	0.94790 0.20401 0.50066 0.37100
Eu	Eu	0.49080 0.77026 -0.01774 1.95900
O 	O 	0.53403 0.71047 0.94904 -0.18800
C 	C 	0.53110 0.82482 0.93872 0.33200
O 	O 	0.40949 0.73211 -0.03519 -0.12700
O 	O 	0.46428 0.71363 -0.00932 -0.31000
O 	O 	0.45948 0.83686 0.01677 -0.13900
O 	O 	0.55866 0.80558 0.93603 -0.13400
O 	O 	0.51701 0.82605 0.97038 -0.33300
O 	O 	0.54700 0.74217 -0.00460 -0.35200
C 	C 	0.55246 0.71202 0.97548 0.39700
O 	O 	0.48935 0.78337 0.03796 -0.30400
C 	C 	0.47506 0.81957 0.04130 0.26500
C 	C 	0.43595 0.71037 -0.03409 0.20500
Eu	Eu	0.24420 0.52509 -0.00062 2.11200
O 	O 	0.16641 0.49143 0.92596 -0.07500
C 	C 	0.30200 0.57904 0.98266 0.39200
O 	O 	0.23971 0.52138 0.07351 -0.23300
O 	O 	0.19913 0.50553 0.03257 -0.38000
O 	O 	0.32113 0.51151 0.03855 -0.21000
O 	O 	0.28345 0.59279 1.00352 -0.23900
O 	O 	0.28988 0.54687 0.96794 -0.33900
O 	O 	0.21998 0.49120 0.95699 -0.29500
C 	C 	0.19167 0.50976 0.93690 0.21800
O 	O 	0.27979 0.47300 0.01589 -0.37100
C 	C 	0.31551 0.48217 0.02514 0.39300
C 	C 	0.20792 0.51517 0.06544 0.38000
Eu	Eu	0.50349 0.23722 0.00706 2.01300
O 	O 	0.48515 0.32136 0.98615 -0.13600
C 	C 	0.46673 0.20570 0.94584 0.25300
O 	O 	0.57065 0.26854 -0.01318 -0.20000
O 	O 	0.53853 0.28103 0.03167 -0.32500
O 	O 	0.53187 0.16800 0.05189 -0.21400
O 	O 	0.46655 0.23937 0.93803 -0.15200
O 	O 	0.47091 0.19346 0.97992 -0.32000
O 	O 	0.45187 0.27435 0.00814 -0.31700
C 	C 	0.45710 0.31208 0.99910 0.29400
O 	O 	0.48867 0.21258 0.05861 -0.35400
C 	C 	0.50963 0.18074 0.07016 0.39100
C 	C 	0.56767 0.28742 0.01126 0.27000
C 	C 	0.01128 0.41869 0.67522 -0.16800
C 	C 	0.97819 0.40204 0.66545 0.30800
F 	F 	0.95018 0.40052 0.68635 -0.31600
C 	C 	0.97313 0.38750 0.63366 0.32500
F 	F 	0.94065 0.37192 0.62537 -0.27600
C 	C 	0.00105 0.38894 0.61079 -0.12500
C 	C 	-0.00468 0.37169 0.57670 0.51900
F 	F 	0.95969 0.37944 0.56373 -0.31300
F 	F 	0.01832 0.38746 0.55363 -0.32800
C 	C 	0.00272 0.32867 0.58046 0.35800
F 	F 	-0.02068 0.31224 0.60274 -0.30400
F 	F 	0.03837 0.32146 0.59346 -0.30700
C 	C 	0.03428 0.40561 0.62063 0.31600
F 	F 	0.06247 0.40676 0.59994 -0.27900
C 	C 	0.03912 0.42068 0.65242 0.30000
F 	F 	0.07145 0.43631 0.66112 -0.31500
C 	C 	0.58288 0.97357 0.34792 -0.14000
C 	C 	0.59636 0.01013 0.34726 0.29400
F 	F 	0.58739 0.03519 0.32068 -0.31600
C 	C 	0.61774 0.02209 0.37477 0.30700
F 	F 	0.62829 0.05830 0.37374 -0.27400
C 	C 	0.62698 0.99757 0.40346 -0.10100
C 	C 	0.64928 1.01161 0.43369 0.52900
F 	F 	0.63523 1.04656 0.44085 -0.30700
F 	F 	0.64637 0.98781 0.46233 -0.32000
C 	C 	0.69014 0.01467 0.42657 0.34600
F 	F 	0.69459 1.04258 0.40149 -0.27900
F 	F 	0.70300 0.98087 0.41560 -0.29700
C 	C 	0.61444 0.96046 0.40358 0.31800
F 	F 	0.62318 0.93523 0.43006 -0.27400
C 	C 	0.59238 0.94879 0.37631 0.30400
F 	F 	0.58026 0.91313 0.37781 -0.30600
C 	C 	0.01904 0.70612 0.40189 -0.16200
C 	C 	0.99794 0.71197 0.37117 0.31400
F 	F 	0.96928 0.73722 0.36816 -0.30800
C 	C 	1.00540 0.69110 0.34353 0.32400
F 	F 	0.98334 0.69714 0.31483 -0.27400
C 	C 	0.03475 0.66425 0.34585 -0.12000
C 	C 	0.04227 0.63949 0.31682 0.52200
F 	F 	0.02068 0.65128 0.28795 -0.32300
F 	F 	0.07830 0.64351 0.30878 -0.29700
C 	C 	0.03579 0.59739 0.32680 0.37300
F 	F 	0.01203 0.59399 0.35270 -0.32800
F 	F 	0.06867 0.57952 0.33839 -0.26200
C 	C 	0.05646 0.65933 0.37654 0.31800
F 	F 	0.08555 0.63464 0.37969 -0.26400
C 	C 	0.04831 0.67961 0.40438 0.30600
F 	F 	0.06975 0.67403 0.43354 -0.31700
C 	C 	0.41311 -0.00219 0.33558 -0.16600
C 	C 	0.37461 -0.00045 0.33061 0.28900
F 	F 	0.35804 0.00463 0.29901 -0.31500
C 	C 	0.35254 0.99499 0.35804 0.32500
F 	F 	0.31564 0.99683 0.35185 -0.28000
C 	C 	0.36830 0.98819 0.39125 -0.11300
C 	C 	0.34473 0.97878 0.42081 0.51800
F 	F 	0.31193 0.96404 0.40939 -0.33000
F 	F 	0.36273 0.95113 0.44227 -0.32200
C 	C 	0.33640 1.01367 0.44056 0.37600
F 	F 	0.31730 0.04062 0.41923 -0.31600
F 	F 	0.36872 1.02879 0.45255 -0.30100
C 	C 	0.40672 0.98868 0.39642 0.31100
F 	F 	0.42311 0.98370 0.42811 -0.27200
C 	C 	0.42883 0.99333 0.36900 0.31900
F 	F 	0.46571 -0.00745 0.37534 -0.33300
C 	C 	0.02947 0.36463 0.43419 -0.17000
C 	C 	1.00470 0.39380 0.42162 0.31100
F 	F 	0.96831 0.39120 0.42580 -0.31600
C 	C 	1.01727 0.42653 0.40552 0.31200
F 	F 	0.99250 0.45424 0.39440 -0.31400
C 	C 	0.05492 0.43086 0.40149 -0.14500
C 	C 	0.06889 0.46751 0.38610 0.52800
F 	F 	0.04926 0.49774 0.39711 -0.30900
F 	F 	0.10488 0.47182 0.39783 -0.27100
C 	C 	0.06754 0.46883 0.34686 0.36100
F 	F 	0.08049 0.43480 0.33643 -0.31900
F 	F 	0.09070 0.49633 0.33574 -0.27900
C 	C 	0.07948 0.40092 0.41303 0.32200
F 	F 	0.11579 0.40270 0.40819 -0.27300
C 	C 	0.06692 0.36846 0.42952 0.29900
F 	F 	0.09150 0.34039 0.44028 -0.32600
C 	C 	0.57932 0.68151 0.98696 -0.14200
C 	C 	0.61080 0.68913 0.00707 0.29500
F 	F 	0.61818 0.72496 0.01436 -0.31000
C 	C 	0.63532 0.66004 0.01951 0.31700
F 	F 	0.66591 0.66903 0.03798 -0.27900
C 	C 	0.62843 0.62238 0.01270 -0.11200
C 	C 	0.65429 0.59017 0.02682 0.52300
F 	F 	0.67579 0.60086 0.05438 -0.32900
F 	F 	0.63390 0.56036 0.03826 -0.31700
C 	C 	0.67935 0.57727 -0.00046 0.35900
F 	F 	0.69694 0.60802 0.98588 -0.30500
F 	F 	0.65873 0.56184 -0.02626 -0.29200
C 	C 	0.59696 0.61497 -0.00785 0.31100
F 	F 	0.58897 0.57923 -0.01495 -0.26600
C 	C 	0.57288 0.64420 0.97922 0.31200
F 	F 	0.54245 0.63574 0.96023 -0.28100
C 	C 	0.70329 0.40642 1.01612 -0.14200
C 	C 	0.67430 0.41368 0.99148 0.29800
F 	F 	0.67008 0.44775 0.97424 -0.30200
C 	C 	0.64875 0.38619 0.98486 0.33000
F 	F 	0.62068 0.39492 0.96148 -0.27000
C 	C 	0.65196 0.35046 0.00237 -0.12600
C 	C 	0.62549 0.31963 -0.00582 0.52000
F 	F 	0.60999 0.32601 0.96148 -0.31300
F 	F 	0.64456 0.28537 -0.00459 -0.32800
C 	C 	0.59470 0.31738 0.01925 0.37000
F 	F 	0.57584 0.35169 0.01809 -0.30300
F 	F 	0.60977 0.30944 0.05185 -0.30800
C 	C 	0.68066 0.34357 0.02752 0.32000
F 	F 	0.68470 0.30978 0.04528 -0.28400
C 	C 	0.70586 0.37124 0.03442 0.28600
F 	F 	0.73332 0.36316 0.05857 -0.32100
C 	C 	0.35397 0.01239 0.59128 -0.17100
C 	C 	0.38776 0.99246 0.59270 0.31400
F 	F 	0.39334 0.96439 0.57171 -0.30500
C 	C 	0.41623 1.00129 0.61564 0.31400
F 	F 	0.44837 0.98131 0.61604 -0.28600
C 	C 	0.41121 0.02969 0.63833 -0.14100
C 	C 	0.44102 0.03760 0.66523 0.51500
F 	F 	0.47526 0.02820 0.65460 -0.34400
F 	F 	0.44091 0.07584 0.66978 -0.29300
C 	C 	0.43537 0.01614 0.69961 0.36600
F 	F 	0.39879 0.01780 0.70668 -0.32300
F 	F 	0.45452 0.03378 0.72472 -0.53800
C 	C 	0.37742 0.05004 0.63635 0.32000
F 	F 	0.37120 0.07754 0.65774 -0.27400
C 	C 	0.34928 0.04172 0.61280 0.30100
F 	F 	0.31681 0.06117 0.61219 -0.32000
C 	C 	0.99379 0.56295 0.67119 -0.14700
C 	C 	0.02978 0.57394 0.66673 0.28800
F 	F 	0.05740 0.56242 0.68978 -0.33400
C 	C 	0.03797 0.59596 0.63799 0.31900
F 	F 	0.07331 0.60510 0.63431 -0.27600
C 	C 	0.01021 0.60817 0.61323 -0.12600
C 	C 	0.01973 0.63218 0.58205 0.51600
F 	F 	0.05235 0.61872 0.57065 -0.31500
F 	F 	0.99316 0.62971 0.55590 -0.31500
C 	C 	0.02325 0.67375 0.59005 0.36200
F 	F 	1.05071 0.67749 0.61510 -0.28900
F 	F 	-0.00944 0.68684 0.60157 -0.31300
C 	C 	0.97387 0.59786 0.61827 0.33000
F 	F 	0.94582 0.61021 0.59603 -0.27700
C 	C 	0.96589 0.57510 0.64677 0.29900
F 	F 	0.93067 0.56587 0.65101 -0.30600
C 	C 	0.68552 1.00359 0.60028 -0.13200
C 	C 	0.65011 0.01436 0.58655 0.27000
F 	F 	0.64454 0.02847 0.55399 -0.30700
C 	C 	0.61986 1.01139 0.60637 0.34700
F 	F 	0.58647 0.02317 0.59225 -0.28000
C 	C 	0.62414 0.99717 0.64040 -0.12300
C 	C 	0.59155 0.99475 0.66248 0.53200
F 	F 	0.55962 0.98983 0.64283 -0.30700
F 	F 	0.59629 0.96366 0.68523 -0.32400
C 	C 	0.58742 0.03077 0.68182 0.36100
F 	F 	0.58205 0.06156 0.65878 -0.30000
F 	F 	0.61898 0.03576 0.70188 -0.31500
C 	C 	0.65960 0.98661 0.65414 0.32500
F 	F 	0.66524 0.97355 0.68699 -0.27800
C 	C 	0.68984 0.98971 0.63439 0.29200
F 	F 	0.72336 0.97894 0.64884 -0.30800
C 	C 	0.87443 0.52336 0.09272 -0.15800
C 	C 	0.90603 0.50127 0.10306 0.30200
F 	F 	0.91468 0.47014 0.08673 -0.31400
C 	C 	0.92877 0.51061 0.13066 0.30300
F 	F 	0.95823 0.48765 0.14041 -0.30700
C 	C 	0.92029 0.54220 0.14879 -0.13700
C 	C 	0.94267 0.55014 0.18108 0.51600
F 	F 	0.97851 0.53742 0.17952 -0.39700
F 	F 	0.94376 0.58858 0.18423 -0.29600
C 	C 	0.92643 0.53167 0.21289 0.34200
F 	F 	0.88963 0.54177 0.21306 -0.31100
F 	F 	0.94370 0.54520 0.24138 -0.50000
C 	C 	0.88949 0.56525 0.13737 0.32000
F 	F 	0.88008 0.59585 0.15410 -0.27400
C 	C 	0.86709 0.55616 0.10936 0.29700
F 	F 	0.83703 0.57833 0.09984 -0.32400
C 	C 	0.52287 0.90478 0.17845 -0.15100
C 	C 	0.52230 0.92599 0.14725 0.29500
F 	F 	0.52145 0.96414 0.14607 -0.31700
C 	C 	0.52156 0.90815 0.11663 0.31500
F 	F 	0.51959 0.93000 0.08727 -0.28000
C 	C 	0.52174 0.86851 0.11642 -0.11300
C 	C 	0.51855 0.84858 0.08334 0.52000
F 	F 	0.52975 0.87159 0.05677 -0.32800
F 	F 	0.54153 0.81686 0.08593 -0.32800
C 	C 	0.47876 0.83724 0.07496 0.37000
F 	F 	0.45577 0.86889 0.07399 -0.31400
F 	F 	0.46785 0.81175 0.09978 -0.30700
C 	C 	0.52369 0.84739 0.14772 0.31400
F 	F 	0.52466 0.80922 0.14896 -0.27900
C 	C 	0.52420 0.86520 0.17822 0.29500
F 	F 	0.52576 0.84338 0.20759 -0.31400
C 	C 	0.17907 0.51981 0.08974 -0.15600
C 	C 	0.18856 0.52450 0.12416 0.29800
F 	F 	0.22405 0.52193 0.13642 -0.30900
C 	C 	0.16165 0.53227 0.14645 0.31500
F 	F 	0.17224 0.53735 0.17925 -0.27300
C 	C 	0.12441 0.53531 0.13509 -0.11600
C 	C 	0.09559 0.54498 0.15956 0.52400
F 	F 	0.10917 0.57134 0.18095 -0.31400
F 	F 	0.06453 0.56111 0.14211 -0.30900
C 	C 	0.08492 0.50960 0.18069 0.37000
F 	F 	0.07027 0.48400 0.15912 -0.30600
F 	F 	0.11565 0.49302 0.19821 -0.30200
C 	C 	0.11478 0.52930 0.10087 0.31500
F 	F 	0.07923 0.53084 0.08881 -0.28000
C 	C 	0.14179 0.52176 0.07849 0.29400
F 	F 	0.13127 0.51746 0.04554 -0.32700
C 	C 	0.86090 0.51415 0.93871 -0.15700
C 	C 	0.84360 0.51383 0.90609 0.30200
F 	F 	0.80776 0.50539 0.90186 -0.31700
C 	C 	0.86357 0.52012 0.87739 0.31600
F 	F 	0.84620 0.51712 0.84647 -0.27900
C 	C 	0.90127 0.52753 0.88071 -0.11300
C 	C 	0.92446 0.52927 0.85006 0.52100
F 	F 	0.90299 0.53928 0.82070 -0.32600
F 	F 	0.95051 0.55645 0.85353 -0.31500
C 	C 	0.94349 0.49066 0.84672 0.36700
F 	F 	0.91758 0.46303 0.84744 -0.31900
F 	F 	0.96901 0.48264 0.87359 -0.31300
C 	C 	0.91804 0.52945 0.91349 0.31500
F 	F 	0.95412 0.53680 0.91798 -0.27500
C 	C 	0.89815 0.52267 0.94210 0.30200
F 	F 	0.91550 0.52434 0.97322 -0.31100
C 	C 	0.51183 0.84486 0.90846 -0.16300
C 	C 	0.52704 0.84511 0.87664 0.29000
F 	F 	0.56002 0.82794 0.87299 -0.31200
C 	C 	0.50881 0.86367 0.84815 0.30200
F 	F 	0.52527 0.86402 0.81835 -0.30200
C 	C 	0.47503 0.88301 0.85069 -0.14800
C 	C 	0.45736 0.90720 0.82067 0.52200
F 	F 	0.46685 0.89328 0.79039 -0.33400
F 	F 	0.41959 0.90609 0.82087 -0.29100
C 	C 	0.46890 0.94847 0.82167 0.36200
F 	F 	0.45591 0.96428 0.84988 -0.30900
F 	F 	0.45353 0.96872 0.79318 -0.45600
C 	C 	0.45959 0.88232 0.88240 0.31500
F 	F 	0.42719 0.90059 0.88613 -0.28100
C 	C 	0.47760 0.86328 0.91083 0.27600
F 	F 	0.46128 0.86311 0.94067 -0.36100
C 	C 	0.12255 0.50947 0.82193 -0.16000
C 	C 	0.15540 0.48959 0.83219 0.30300
F 	F 	0.16183 0.45453 0.82184 -0.31300
C 	C 	0.18209 0.50573 0.85300 0.30300
F 	F 	0.21314 0.48518 0.86269 -0.29400
C 	C 	0.17612 0.54192 0.86472 -0.13700
C 	C 	0.20337 0.55830 0.89013 0.52000
F 	F 	0.23826 0.54312 0.88743 -0.31900
F 	F 	0.20529 0.59668 0.88293 -0.29000
C 	C 	0.19253 0.55125 0.92703 0.36400
F 	F 	0.15845 0.56771 0.93090 -0.32300
F 	F 	0.21763 0.56795 0.94834 -0.46900
C 	C 	0.14326 0.56187 0.85398 0.31600
F 	F 	0.13615 0.59667 0.86462 -0.27600
C 	C 	0.11698 0.54596 0.83260 0.30100
F 	F 	0.08531 0.56574 0.82348 -0.32300
C 	C 	0.50424 0.10228 0.81929 -0.14800
C 	C 	0.51407 0.08874 0.85280 0.29800
F 	F 	0.52409 0.05206 0.86010 -0.32800
C 	C 	0.51293 0.11269 0.87941 0.31600
F 	F 	0.52207 0.09827 0.91140 -0.28400
C 	C 	0.50226 0.15088 0.87315 -0.11500
C 	C 	0.50262 0.17731 0.90186 0.51500
F 	F 	0.53036 0.16626 0.92610 -0.35900
F 	F 	0.51033 0.21330 0.88964 -0.33500
C 	C 	0.46573 0.17796 0.91871 0.36800
F 	F 	0.45934 0.14252 0.93301 -0.30500
F 	F 	0.43740 0.18822 0.89489 -0.29800
C 	C 	0.49158 0.16416 0.83968 0.31800
F 	F 	0.47990 0.20041 0.83252 -0.27300
C 	C 	0.49272 0.14022 0.81310 0.30100
F 	F 	0.48304 0.15447 0.78117 -0.29900
C 	C 	0.50517 0.16324 0.10467 -0.15100
C 	C 	0.52802 0.13281 0.11829 0.29700
F 	F 	0.55377 0.11739 0.09963 -0.31200
C 	C 	0.52500 0.11818 0.15159 0.31000
F 	F 	0.54740 0.08872 0.16350 -0.30100
C 	C 	0.49926 0.13383 0.17222 -0.13000
C 	C 	0.49774 0.12119 0.20952 0.52200
F 	F 	0.53097 0.10463 0.22193 -0.32700
F 	F 	0.49317 0.15296 0.22756 -0.28800
C 	C 	0.46569 0.09438 0.21616 0.37200
F 	F 	0.43826 0.09922 0.19040 -0.31800
F 	F 	0.45042 0.10310 0.24594 -0.29300
C 	C 	0.47531 0.16296 0.15801 0.32200
F 	F 	0.44910 0.17784 0.17652 -0.27500
C 	C 	0.47821 0.17749 0.12482 0.29600
F 	F 	0.45461 0.20589 0.11274 -0.31300
C 	C 	0.93485 0.84433 0.48394 -0.14500
C 	C 	0.93554 0.88381 0.47966 0.30100
F 	F 	0.96660 0.90133 0.47171 -0.29500
C 	C 	0.90457 0.90599 0.48482 0.32100
F 	F 	0.90738 0.94393 0.48232 -0.26700
C 	C 	0.87185 0.88936 0.49402 -0.11400
C 	C 	0.83919 0.91364 0.50233 0.52000
F 	F 	0.83952 0.94812 0.48423 -0.34100
F 	F 	0.80688 0.89708 0.49214 -0.31100
C 	C 	0.83982 0.91921 0.54086 0.36900
F 	F 	0.87551 0.92292 0.55383 -0.31900
F 	F 	0.82556 0.88822 0.55747 -0.28900
C 	C 	0.87096 0.84991 0.49781 0.31800
F 	F 	0.84041 0.83274 0.50769 -0.27300
C 	C 	0.90193 0.82766 0.49252 0.30000
F 	F 	0.89965 0.78974 0.49658 -0.31100
C 	C 	0.92540 0.17304 0.48807 -0.15300
C 	C 	0.88687 0.17626 0.48601 0.28900
F 	F 	0.86936 0.20542 0.49937 -0.31800
C 	C 	0.86580 0.15003 0.46935 0.30100
F 	F 	0.82888 0.15539 0.46698 -0.30900
C 	C 	0.88267 0.11955 0.45458 -0.14400
C 	C 	0.86070 0.09368 0.43226 0.52200
F 	F 	0.82730 0.11037 0.42058 -0.31900
F 	F 	0.87973 0.08812 0.40371 -0.28800
C 	C 	0.85446 0.05476 0.45015 0.37000
F 	F 	0.88702 0.03999 0.46575 -0.29100
F 	F 	0.84311 0.03065 0.42578 -0.27300
C 	C 	0.92115 0.11512 0.45857 0.31600
F 	F 	0.93877 0.08627 0.44482 -0.27200
C 	C 	0.94219 0.14138 0.47517 0.28800
F 	F 	0.97919 0.13655 0.47700 -0.31500
C 	C 	0.19464 0.89728 0.49273 -0.15200
C 	C 	0.15728 0.90738 0.48626 0.29300
F 	F 	0.14554 0.94392 0.48533 -0.31900
C 	C 	0.13124 0.87978 0.48182 0.30500
F 	F 	0.09542 0.89080 0.47697 -0.30100
C 	C 	0.14199 0.84138 0.48360 -0.13500
C 	C 	0.11417 0.81064 0.48009 0.50700
F 	F 	0.08205 0.82452 0.46284 -0.40300
F 	F 	0.12828 0.78320 0.46073 -0.31600
C 	C 	0.10534 0.79226 0.51496 0.34700
F 	F 	0.13683 0.78672 0.53609 -0.31000
F 	F 	0.09154 0.75723 0.51019 -0.52300
C 	C 	0.17948 0.83148 0.48947 0.31900
F 	F 	0.19115 0.79487 0.49146 -0.27200
C 	C 	0.20541 0.85898 0.49392 0.29500
F 	F 	0.24113 0.84785 0.49970 -0.30700
C 	C 	0.16824 0.07546 0.55417 -0.16000
C 	C 	0.13987 0.07595 0.52857 0.29500
F 	F 	0.14349 0.05612 0.50073 -0.32700
C 	C 	0.10681 0.09563 0.53197 0.30100
F 	F 	0.07978 0.09372 0.50719 -0.29400
C 	C 	0.10170 0.11630 0.56066 -0.13700
C 	C 	0.06565 0.13745 0.56526 0.51900
F 	F 	0.03699 0.12308 0.54608 -0.32200
F 	F 	0.05712 0.13202 0.59876 -0.29200
C 	C 	0.06753 0.18030 0.55649 0.37300
F 	F 	0.09841 0.19425 0.57258 -0.30700
F 	F 	0.03725 0.19777 0.56872 -0.32600
C 	C 	0.13049 0.11605 0.58609 0.31500
F 	F 	0.12680 0.13504 0.61441 -0.27400
C 	C 	0.16318 0.09563 0.58297 0.29800
F 	F 	0.19008 0.09600 0.60809 -0.30700
C 	C 	0.33737 0.59541 0.97464 -0.14300
C 	C 	0.35545 0.61862 -0.00261 0.28900
F 	F 	0.34070 0.62675 0.02680 -0.32100
C 	C 	0.38952 0.63294 -0.00938 0.29700
F 	F 	0.40635 0.65431 0.01372 -0.31800
C 	C 	0.40626 0.62485 0.96075 -0.12500
C 	C 	0.44325 0.64101 0.95353 0.52800
F 	F 	0.46609 0.63820 -0.01716 -0.33000
F 	F 	0.46026 0.62003 0.93032 -0.27100
C 	C 	0.43927 0.68232 0.93902 0.37500
F 	F 	0.40918 0.68641 0.91592 -0.32200
F 	F 	0.46978 0.69090 0.92155 -0.33000
C 	C 	0.38775 0.60214 0.93766 0.32300
F 	F 	0.40199 0.59445 0.90792 -0.26800
C 	C 	0.35388 0.58736 0.94473 0.29700
F 	F 	0.33700 0.56565 0.92189 -0.29600
C 	C 	0.34634 0.45685 0.01781 -0.17000
C 	C 	0.34356 0.43543 0.98920 0.31100
F 	F 	0.31287 0.43787 0.96805 -0.32700
C 	C 	0.37270 0.41193 0.98151 0.32100
F 	F 	0.36907 0.39257 0.95310 -0.27100
C 	C 	0.40518 0.40855 0.00265 -0.11600
C 	C 	0.43608 0.38146 -0.00536 0.51900
F 	F 	0.44071 0.38429 0.96014 -0.30600
F 	F 	0.46887 0.39075 0.01090 -0.30900
C 	C 	0.42746 0.34049 0.00576 0.36200
F 	F 	0.39543 0.33027 -0.01113 -0.30500
F 	F 	0.42251 0.33810 0.04017 -0.31400
C 	C 	0.40781 0.43007 0.03146 0.31500
F 	F 	0.43803 0.42743 0.05316 -0.27500
C 	C 	0.37886 0.45422 0.03867 0.30400
F 	F 	0.38224 0.47419 0.06675 -0.30900
