data_crystal

_cell_length_a 18.15350
_cell_length_b 14.38840
_cell_length_c 12.71910
_cell_angle_alpha 102.54590
_cell_angle_beta  67.08500
_cell_angle_gamma 99.72100

_symmetry_space_group_name_	'P 1'
_symmetry_space_group_name_H-M	'P 1'

loop_
_symmetry_equiv_pos_as_xyz
  x,y,z

loop_
_atom_site_label
_atom_site_type_symbol
_atom_site_fract_x
_atom_site_fract_y
_atom_site_fract_z
_atom_site_charge
Mn	Mn	0.37697 0.08182 -0.01888 1.22000
Mn	Mn	0.22892 0.92496 -0.08121 1.26700
Mn	Mn	0.70269 0.95793 1.08756 1.23400
Mn	Mn	0.85975 0.13719 1.05232 1.28100
Mn	Mn	0.04194 0.03243 -0.00221 1.23900
C 	C 	0.36444 -0.08579 0.10154 0.13000
N 	N 	0.33409 -0.03831 0.05049 -0.25800
N 	N 	0.27598 0.90280 0.02914 -0.19800
N 	N 	0.27148 0.82029 0.06208 -0.06300
N 	N 	0.32561 0.82559 0.10979 -0.09800
N 	N 	0.10584 0.79444 0.06078 -0.12000
N 	N 	0.11840 0.87287 0.01641 -0.21800
N 	N 	0.05136 0.91558 0.05573 -0.21800
N 	N 	0.99261 0.86644 0.12846 -0.07600
C 	C 	0.02772 0.79081 0.12910 0.13700
C 	C 	0.17191 -0.05430 0.65284 0.15200
N 	N 	0.18588 -0.05648 0.80740 -0.19400
N 	N 	0.22195 0.92091 0.69439 -0.08700
N 	N 	0.13882 0.09839 0.04813 -0.24500
N 	N 	0.20875 0.06119 0.00015 -0.20400
N 	N 	0.26216 0.11411 0.03930 -0.21600
N 	N 	0.22764 0.18075 0.12611 -0.12700
N 	N 	0.11740 -0.02115 0.83477 -0.18000
N 	N 	0.10641 -0.01898 0.73854 -0.10200
C 	C 	0.14994 0.16942 0.13506 0.14400
N 	N 	0.73774 1.03812 0.96185 -0.24300
N 	N 	0.79647 0.10785 0.94572 -0.19200
N 	N 	0.79131 0.15978 0.87506 -0.05200
N 	N 	0.72887 0.12305 0.84374 -0.09200
N 	N 	0.97767 0.19090 0.82624 -0.10500
N 	N 	0.96706 0.16596 0.92623 -0.19900
N 	N 	1.03598 0.14733 0.92672 -0.16600
N 	N 	0.09370 0.16596 0.82860 -0.11200
N 	N 	0.93572 0.05457 0.25359 -0.09900
N 	N 	0.96035 0.08695 0.15431 -0.20600
N 	N 	0.91644 0.15547 0.16442 -0.21900
N 	N 	0.87136 0.18015 0.27398 -0.11800
N 	N 	0.94614 0.96312 0.95944 -0.21600
N 	N 	0.87643 0.99818 1.01476 -0.18200
N 	N 	0.81773 0.92943 1.02586 -0.19700
N 	N 	0.84696 0.84689 0.97182 -0.11200
Cl	Cl	0.35271 -0.00756 -0.17805 -0.77500
Cl	Cl	0.74012 1.09469 1.18996 -0.69900
C 	C 	0.69675 0.04674 0.89860 0.12900
C 	C 	1.05768 0.19142 0.76492 0.18400
C 	C 	0.88369 0.11747 0.32781 0.18300
C 	C 	0.92787 0.86791 0.93051 0.21100
C 	C 	0.08457 0.20338 0.24938 -0.23100
C 	C 	0.10828 0.24317 0.35531 0.12600
C 	C 	0.08468 0.19112 0.44805 -0.17100
C 	C 	0.10028 0.22923 0.55081 0.12700
C 	C 	0.09194 0.16210 0.63341 -0.22000
C 	C 	0.14023 0.32113 0.55971 -0.13500
C 	C 	0.16213 0.37495 0.46993 0.08200
C 	C 	0.20215 0.47494 0.48195 -0.05600
N 	N 	0.14354 0.54346 0.50936 -0.16600
C 	C 	0.14090 0.59338 0.43048 0.20700
O 	O 	0.18822 0.58042 0.33047 -0.23400
C 	C 	0.07944 0.66145 0.46460 -0.06800
C 	C 	0.05276 0.71459 0.57693 0.00300
C 	C 	-0.00502 0.77919 0.60898 -0.06500
C 	C 	-0.03100 0.84117 0.72366 0.21700
O 	O 	-0.05923 0.91519 0.73249 -0.23000
N 	N 	-0.02669 0.81743 0.82013 -0.20800
C 	C 	-0.03632 0.78994 0.52785 -0.00700
C 	C 	-0.00891 0.74052 0.41395 -0.08000
C 	C 	0.96460 0.76723 0.32777 0.23100
O 	O 	0.92028 0.83105 0.35881 -0.20200
N 	N 	0.99438 0.72842 0.21296 -0.17400
C 	C 	0.04952 0.67595 0.38314 0.01200
C 	C 	0.14614 0.33574 0.36853 -0.13400
H 	H 	1.04741 0.13823 0.27206 0.10300
H 	H 	0.04922 0.25366 0.23788 0.07100
H 	H 	1.05596 0.11901 0.43878 0.08800
H 	H 	0.15325 0.14169 0.60977 0.08100
H 	H 	1.05581 0.09503 0.61363 0.10100
H 	H 	0.15547 0.35009 0.63552 0.06700
H 	H 	0.22622 0.48832 0.55255 0.04300
H 	H 	0.25448 0.48446 0.40102 0.05000
H 	H 	0.09948 0.55004 0.59260 0.08200
H 	H 	0.08000 0.70904 0.63702 0.02700
H 	H 	-0.00690 0.75256 0.81707 0.09100
H 	H 	0.91912 0.84014 0.55294 0.07500
H 	H 	0.01753 0.66215 0.18743 0.06500
H 	H 	0.07328 0.63705 0.29617 0.03100
H 	H 	0.16252 0.37776 0.30027 0.07000
C 	C 	0.19008 -0.05881 0.52748 -0.19900
C 	C 	0.27307 -0.01251 0.46556 0.11800
C 	C 	0.31372 -0.05192 0.35066 -0.15000
C 	C 	0.38668 -0.00734 0.28251 0.08900
C 	C 	0.42577 -0.04237 0.15414 -0.18800
C 	C 	0.42252 0.07343 0.33458 -0.13600
C 	C 	0.38503 0.11167 0.45168 0.07700
C 	C 	0.42732 0.19620 0.50570 -0.05400
N 	N 	0.49753 0.16640 0.51576 -0.16400
C 	C 	0.50910 0.17968 0.61862 0.22300
O 	O 	0.46633 0.22969 0.70394 -0.23100
C 	C 	0.56935 0.12881 0.63066 -0.07700
C 	C 	0.64272 0.10816 0.53986 0.01300
C 	C 	0.69379 0.05113 0.55219 -0.07700
C 	C 	0.77197 0.03353 0.46047 0.22800
O 	O 	0.78228 -0.04501 0.39971 -0.22700
N 	N 	0.83194 0.10642 0.44253 -0.19600
C 	C 	0.67152 0.01407 0.65392 0.02300
C 	C 	0.60057 0.03786 0.74612 -0.09800
C 	C 	0.57315 0.99340 0.84968 0.22900
O 	O 	0.50539 0.95337 0.88102 -0.26000
N 	N 	0.62071 0.99280 0.91038 -0.20200
C 	C 	0.55056 0.09595 0.73479 0.05700
C 	C 	0.30904 0.07027 0.51630 -0.12300
H 	H 	0.14442 0.97524 0.51480 0.08100
H 	H 	0.18472 -0.13563 0.48939 0.07600
H 	H 	0.28608 0.88365 0.31455 0.08400
H 	H 	0.45981 0.01934 0.11078 -0.00400
H 	H 	0.46969 0.90614 0.13728 0.03500
H 	H 	0.47983 0.10695 0.28378 0.03100
H 	H 	0.44762 0.25238 0.45013 0.03600
H 	H 	0.38494 0.22789 0.59128 0.06200
H 	H 	0.53702 0.12735 0.44202 0.07500
H 	H 	0.66041 0.13616 0.46022 0.03400
H 	H 	0.82174 0.16972 0.50277 0.09700
H 	H 	0.70970 0.96754 0.66154 0.04800
H 	H 	0.59826 0.95140 0.97631 0.03300
H 	H 	0.49522 0.11276 0.80649 -0.03100
H 	H 	0.27887 0.10157 0.60570 0.07600
