data_crystal

_cell_length_a 19.23520
_cell_length_b 17.62520
_cell_length_c 9.65600
_cell_angle_alpha 67.56030
_cell_angle_beta  113.94740
_cell_angle_gamma 136.29970

_symmetry_space_group_name_	'P 1'
_symmetry_space_group_name_H-M	'P 1'

loop_
_symmetry_equiv_pos_as_xyz
  x,y,z

loop_
_atom_site_label
_atom_site_type_symbol
_atom_site_fract_x
_atom_site_fract_y
_atom_site_fract_z
_atom_site_charge
Mn	Mn	0.80794 0.16091 0.77406 1.26100
Mn	Mn	1.04787 0.24852 0.91328 1.27600
Mn	Mn	0.27371 -0.10072 0.59867 1.25400
Mn	Mn	0.04720 0.83979 0.50939 1.26200
Mn	Mn	0.04867 0.04711 0.21893 1.25100
C 	C 	0.94276 0.39660 -0.18343 0.22300
N 	N 	0.92833 0.30485 -0.13916 -0.22600
N 	N 	1.02014 0.33742 -0.07586 -0.15800
N 	N 	1.08964 0.44584 -0.07455 -0.00900
N 	N 	1.04351 0.48507 -0.14015 -0.05300
N 	N 	0.19520 0.37406 0.17064 -0.11600
N 	N 	0.14753 0.28510 0.11616 -0.22200
N 	N 	0.15109 0.21412 0.22737 -0.19900
N 	N 	0.20228 0.25661 0.35770 -0.10400
C 	C 	0.23052 0.35676 0.32004 0.16900
C 	C 	0.06151 0.06819 0.78624 0.04300
N 	N 	1.06735 0.15729 0.89260 -0.18400
N 	N 	1.06842 0.15377 0.75943 -0.01600
N 	N 	0.93075 0.04614 0.13987 -0.17500
N 	N 	0.93190 0.11589 0.01978 -0.16700
N 	N 	0.84173 0.08672 -0.02903 -0.15600
N 	N 	0.77772 0.99798 0.05862 -0.07200
N 	N 	1.05881 0.07741 0.99674 -0.14300
N 	N 	0.05514 0.01901 0.93405 -0.10000
C 	C 	0.83333 0.97331 0.16503 0.09200
N 	N 	0.13915 0.76311 0.50204 -0.26600
N 	N 	0.05390 0.74403 0.45994 -0.19400
N 	N 	-0.02032 0.65792 0.38370 -0.05300
N 	N 	0.01499 0.61658 0.37886 -0.10500
N 	N 	0.84568 0.70689 0.30073 -0.06000
N 	N 	0.93700 0.80714 0.32337 -0.16100
N 	N 	0.94378 0.88221 0.20921 -0.17100
N 	N 	0.85717 0.83327 0.10617 -0.06500
N 	N 	0.04599 0.07092 0.51392 -0.09600
N 	N 	0.04127 0.01406 0.44627 -0.19400
N 	N 	0.04613 -0.05787 0.55169 -0.17900
N 	N 	0.05481 -0.05004 0.68974 -0.06400
N 	N 	0.16477 0.04754 0.29281 -0.24500
N 	N 	0.16001 -0.03043 0.39620 -0.19300
N 	N 	0.24624 -0.00826 0.42788 -0.18900
N 	N 	0.31038 0.08393 0.34277 -0.10200
Cl	Cl	0.92769 0.20048 0.69185 -0.70100
Cl	Cl	0.17591 -0.12404 0.71529 -0.70300
C 	C 	0.11407 0.68242 0.45354 0.14300
C 	C 	0.79733 0.72527 0.16516 0.24200
C 	C 	0.05453 0.03026 0.66486 0.13000
C 	C 	0.25873 0.11788 0.25904 0.20700
C 	C 	0.78420 -0.13003 0.27935 0.04600
C 	C 	0.75846 0.87774 0.39854 -0.17400
C 	C 	0.79684 0.85997 0.55372 0.26000
F 	F 	0.84514 0.82244 0.59803 -0.40000
C 	C 	0.77959 0.87288 0.66597 0.22500
F 	F 	0.82253 0.86050 0.81271 -0.41900
C 	C 	0.71526 0.89311 0.62784 -0.10100
C 	C 	0.67997 0.88394 0.75172 0.05800
N 	N 	0.57015 0.78631 0.74305 -0.11300
C 	C 	0.52178 0.68602 0.71559 0.03100
C 	C 	0.41754 0.62343 0.67836 -0.00700
C 	C 	0.33510 0.52700 0.59316 -0.00900
C 	C 	0.33896 0.47072 0.53247 0.02700
N 	N 	0.25112 0.41133 0.42809 -0.13400
C 	C 	0.19258 0.43024 0.42014 0.02700
C 	C 	0.24256 0.50088 0.52239 -0.02000
C 	C 	0.22592 0.56800 0.53358 -0.01600
C 	C 	0.14806 0.56860 0.46336 0.01600
N 	N 	0.17656 0.65657 0.49847 -0.15300
C 	C 	0.27166 0.71232 0.58859 0.01900
C 	C 	0.30318 0.65800 0.61239 -0.01400
C 	C 	0.40241 0.68744 0.68601 -0.00900
C 	C 	0.49768 0.78764 0.72598 0.03600
C 	C 	0.67082 0.90381 0.47354 0.15900
F 	F 	0.60287 -0.08390 0.43434 -0.36800
C 	C 	0.69142 -0.10471 0.35959 0.33600
F 	F 	0.63892 -0.10539 0.21414 -0.39300
H 	H 	0.71218 0.79875 0.21769 0.05000
H 	H 	0.83590 -0.14586 0.33530 0.08500
H 	H 	0.72197 0.87560 0.86708 0.04300
H 	H 	0.69557 0.96062 0.73672 -0.03400
H 	H 	0.56002 0.66617 0.70167 0.04200
H 	H 	0.40483 0.48121 0.55122 0.03700
H 	H 	0.12214 0.40150 0.33684 0.02600
H 	H 	0.07630 0.50999 0.39045 0.02500
H 	H 	0.31524 0.78758 0.63236 -0.07400
H 	H 	0.51353 0.86054 0.72537 0.02000
C 	C 	0.87847 0.40688 0.67199 -0.15800
C 	C 	0.79320 0.38892 0.69093 -0.06800
C 	C 	0.79794 0.47815 0.64498 0.23000
F 	F 	0.88815 0.58408 0.62666 -0.41800
C 	C 	0.70824 0.45864 0.60329 0.23900
F 	F 	0.71363 0.54505 0.52994 -0.41100
C 	C 	0.61327 0.35031 0.62436 -0.11500
C 	C 	0.51502 0.32882 0.56510 0.04000
N 	N 	0.49938 0.35547 0.66959 -0.10600
C 	C 	0.56482 0.45561 0.71552 0.02000
C 	C 	0.52488 0.44865 0.81317 -0.00200
C 	C 	0.57558 0.52415 0.91950 0.00600
C 	C 	0.67750 0.61632 0.95385 0.03400
N 	N 	0.69653 0.64037 1.08825 -0.18200
C 	C 	0.60770 0.56357 0.14113 0.13700
C 	C 	0.52977 0.49060 1.03481 -0.06200
C 	C 	0.42505 0.37886 1.04367 -0.06600
C 	C 	0.37120 0.31586 0.16024 0.12000
N 	N 	0.29583 0.20817 1.13705 -0.20300
C 	C 	0.30147 0.20217 1.00677 0.01200
C 	C 	0.37892 0.30670 0.94475 0.00500
C 	C 	0.43177 0.34235 0.82713 -0.00800
C 	C 	0.41694 0.28519 0.73663 0.02300
C 	C 	0.61045 0.26184 0.68709 0.24400
F 	F 	0.52057 0.15644 0.71040 -0.45400
C 	C 	0.69942 0.28072 0.71726 0.21300
F 	F 	0.69252 0.19280 0.76216 -0.51500
H 	H 	0.93064 0.48948 0.60711 0.13800
H 	H 	0.84414 0.34705 0.59834 0.04900
H 	H 	0.52008 0.38141 0.45335 0.05600
H 	H 	0.44748 0.24125 0.54443 0.05400
H 	H 	0.63901 0.52818 0.68725 0.09000
H 	H 	0.73580 0.65630 0.89311 0.08200
H 	H 	0.60146 0.55780 0.25188 0.04100
H 	H 	0.39195 0.34436 0.26282 0.01300
H 	H 	0.26164 0.12572 0.97070 0.03700
H 	H 	0.35268 0.19801 0.72451 0.04300
