data_crystal

_cell_length_a 24.82670
_cell_length_b 21.08260
_cell_length_c 9.57690
_cell_angle_alpha 65.37880
_cell_angle_beta  114.46480
_cell_angle_gamma 135.42610

_symmetry_space_group_name_	'P 1'
_symmetry_space_group_name_H-M	'P 1'

loop_
_symmetry_equiv_pos_as_xyz
  x,y,z

loop_
_atom_site_label
_atom_site_type_symbol
_atom_site_fract_x
_atom_site_fract_y
_atom_site_fract_z
_atom_site_charge
Mn	Mn	0.88950 0.17548 0.90835 1.21100
Mn	Mn	1.05526 0.20325 1.07079 1.26700
Mn	Mn	0.13523 -0.18458 0.78488 1.21400
Mn	Mn	-0.02083 0.80741 0.66742 1.26200
Mn	Mn	0.02176 0.01487 0.39029 1.26900
C 	C 	1.01800 0.37646 -0.03719 0.10400
N 	N 	0.99329 0.29163 -0.01159 -0.23000
N 	N 	1.05542 0.29974 0.06375 -0.18300
N 	N 	1.11715 0.38691 0.07982 -0.04200
N 	N 	1.09483 0.43601 0.02236 -0.07500
N 	N 	0.17092 0.29402 0.34300 -0.10700
N 	N 	0.12390 0.21759 0.28819 -0.20600
N 	N 	0.11480 0.14951 0.40391 -0.19600
N 	N 	0.15541 0.18011 0.53711 -0.10200
C 	C 	0.19074 0.27033 0.49726 0.11400
C 	C 	0.02232 0.01657 0.95783 0.06200
N 	N 	1.05044 0.10937 1.06032 -0.20600
N 	N 	1.04419 0.09900 0.92683 -0.07600
N 	N 	0.95691 0.05533 0.30841 -0.21800
N 	N 	0.95657 0.09836 0.16295 -0.18300
N 	N 	0.89591 0.09258 0.11208 -0.19500
N 	N 	0.86082 1.05436 0.23082 -0.10800
N 	N 	0.02914 0.03514 1.16729 -0.21800
N 	N 	0.01128 -0.02581 1.10740 -0.10000
C 	C 	0.90885 1.04747 0.35934 0.10800
N 	N 	0.03250 0.72140 0.66289 -0.25800
N 	N 	-0.02839 0.71550 0.62071 -0.20200
N 	N 	-0.08798 0.64634 0.54411 -0.06700
N 	N 	-0.06563 0.60649 0.53514 -0.09500
N 	N 	0.84347 0.73546 0.40366 -0.10300
N 	N 	0.90905 0.80871 0.46374 -0.19800
N 	N 	0.92479 0.88408 0.36646 -0.18500
N 	N 	0.87055 0.86309 0.23923 -0.09000
N 	N 	0.02481 0.03239 0.69108 -0.09900
N 	N 	0.01109 -0.01952 0.61752 -0.19900
N 	N 	-0.00778 -0.09709 0.71519 -0.20300
N 	N 	-0.00761 -0.09838 0.85476 -0.09800
N 	N 	0.09149 -0.01701 0.46854 -0.23800
N 	N 	0.07521 -0.09112 0.57149 -0.19800
N 	N 	0.13454 -0.08819 0.61443 -0.21000
N 	N 	0.19119 -0.01353 0.53720 -0.12700
Cl	Cl	0.97425 0.18755 0.83930 -0.77100
Cl	Cl	0.06235 -0.19295 0.89057 -0.79200
C 	C 	0.01015 0.65486 0.60811 0.09100
C 	C 	0.82008 0.77056 0.26368 0.15600
C 	C 	0.01210 -0.01757 0.83689 0.08500
C 	C 	0.16368 0.03064 0.44521 0.15300
C 	C 	0.94581 0.11631 0.45198 0.00100
C 	C 	0.91748 0.08112 0.58717 -0.04600
C 	C 	0.85545 1.07395 0.57676 0.04100
C 	C 	0.80764 1.01343 0.69022 -0.07300
C 	C 	0.73679 0.99226 0.66157 -0.08300
C 	C 	0.71300 1.03092 0.51884 0.02600
C 	C 	0.63537 0.99480 0.47286 -0.08800
C 	C 	0.60849 1.02382 0.32015 0.03100
C 	C 	0.52184 0.96482 0.24970 -0.01900
C 	C 	0.47434 0.95238 0.33800 -0.08400
C 	C 	0.38710 0.88993 0.26499 -0.00900
N 	N 	0.36063 0.80269 0.25754 -0.12900
C 	C 	0.29933 0.71535 0.33699 0.15100
N 	N 	0.25280 0.70938 0.38998 -0.16100
C 	C 	0.19802 0.62944 0.47332 0.15100
N 	N 	0.15550 0.62864 0.54171 -0.12300
C 	C 	0.08014 0.54269 0.58644 -0.01600
C 	C 	0.02387 0.55896 0.55004 -0.06900
C 	C 	0.06329 0.63950 0.62395 -0.06500
C 	C 	0.13605 0.72693 0.55265 -0.06300
C 	C 	0.19347 0.71247 0.59050 -0.02000
N 	N 	0.18934 0.55358 0.50272 -0.15600
C 	C 	0.23562 0.55820 0.44985 0.15300
N 	N 	0.22806 0.47869 0.48206 -0.12100
C 	C 	0.28527 0.48847 0.44187 -0.01200
C 	C 	0.30514 0.42995 0.56758 -0.07100
C 	C 	0.23257 0.32974 0.61553 -0.03900
C 	C 	0.17684 0.32697 0.65574 -0.07100
C 	C 	0.15674 0.38494 0.52700 -0.01300
N 	N 	0.29049 0.63966 0.36776 -0.15500
C 	C 	0.40247 0.80889 0.17327 -0.01000
C 	C 	0.48984 0.87068 0.24255 -0.08300
C 	C 	0.66272 1.09940 0.22256 -0.08800
C 	C 	0.74035 1.13594 0.26655 0.04100
C 	C 	0.79052 1.19986 0.15789 -0.06800
C 	C 	0.86202 1.22225 0.18759 -0.04300
C 	C 	0.88725 1.18528 0.33003 0.01300
C 	C 	0.95008 0.19079 0.34976 -0.03400
C 	C 	0.83756 1.12287 0.44278 -0.01400
C 	C 	0.76490 1.09937 0.41219 -0.03800
H 	H 	0.94071 0.05581 0.69360 0.07400
H 	H 	0.82204 0.97722 0.79468 0.04000
H 	H 	0.69795 0.93989 0.74533 0.02100
H 	H 	0.59390 0.93743 0.54952 0.03900
H 	H 	0.51387 0.99913 0.12749 0.03000
H 	H 	0.48139 0.92039 0.46262 0.04100
H 	H 	0.49496 1.02041 0.33286 0.03500
H 	H 	0.37755 0.92484 0.14447 0.01400
H 	H 	0.35403 0.87908 0.33514 0.02500
H 	H 	0.09023 0.51706 0.71362 0.02500
H 	H 	0.05283 0.48910 0.52344 0.02700
H 	H 	0.00760 0.57559 0.42101 0.04400
H 	H 	-0.03057 0.49593 0.59446 0.03600
H 	H 	0.08190 0.62281 0.75192 -0.00000
H 	H 	0.16563 0.78703 0.60150 -0.05600
H 	H 	0.11951 0.74291 0.42373 0.04500
H 	H 	0.21621 0.70619 0.71845 0.00900
H 	H 	0.24394 0.77500 0.53184 0.02700
H 	H 	0.34089 0.56089 0.43157 0.03600
H 	H 	0.26213 0.46914 0.32634 0.04300
H 	H 	0.34093 0.46141 0.67393 0.03800
H 	H 	0.34144 0.43115 0.52512 0.03800
H 	H 	0.25368 0.29950 0.72449 0.03300
H 	H 	0.20529 0.35422 0.76556 0.02800
H 	H 	0.12199 0.25478 0.67948 0.04400
H 	H 	0.12278 0.38571 0.57235 0.03600
H 	H 	0.11889 0.35231 0.42209 0.04100
H 	H 	0.38058 0.74017 0.17835 0.03600
H 	H 	0.39337 0.83881 0.04789 0.02500
H 	H 	0.52175 0.88170 0.16900 0.04300
H 	H 	0.49864 0.83420 0.36110 0.04800
H 	H 	0.64277 1.12341 0.10568 0.04900
H 	H 	0.77045 1.22556 0.04347 0.04400
H 	H 	0.88832 1.25556 0.08923 -0.00100
H 	H 	0.96994 0.21147 0.24534 0.03000
C 	C 	0.96602 0.39696 -0.10183 0.01400
C 	C 	0.89650 0.34498 0.79280 -0.10100
C 	C 	0.83621 0.34455 0.76470 -0.02100
C 	C 	0.76398 0.28522 0.67418 -0.04600
C 	C 	0.70125 0.27731 0.66072 -0.05800
C 	C 	0.70927 0.32653 0.74190 0.01400
C 	C 	0.64542 0.31517 0.73588 -0.13200
C 	C 	0.65244 0.35960 -0.17371 0.09100
C 	C 	0.58381 0.34711 -0.17665 -0.05700
C 	C 	0.51171 0.24540 -0.12933 -0.01900
C 	C 	0.43835 0.23294 -0.15992 -0.02900
N 	N 	0.46000 0.32291 -0.19726 -0.11500
C 	C 	0.45859 0.35066 -0.08578 0.16300
N 	N 	0.39241 0.29678 -0.02921 -0.15300
C 	C 	0.38976 0.32467 0.07158 0.18300
N 	N 	0.31975 0.26653 1.13293 -0.13700
C 	C 	0.32063 0.28462 1.26709 -0.01100
C 	C 	0.28651 0.19783 1.39579 -0.10000
C 	C 	0.20561 0.11661 1.32525 -0.12000
C 	C 	0.21322 0.09981 0.19555 0.02100
C 	C 	0.24558 0.18565 1.06620 -0.10700
N 	N 	0.45497 0.40648 0.11782 -0.15500
C 	C 	0.52201 0.45853 0.06661 0.16700
N 	N 	0.59211 0.53931 0.12779 -0.13400
C 	C 	0.65734 0.54184 0.22456 0.03200
C 	C 	0.73087 0.62536 1.15389 -0.11000
C 	C 	0.75193 0.71653 1.14142 -0.06200
C 	C 	0.68236 0.70334 1.14393 -0.11800
C 	C 	0.60431 0.62442 0.06369 0.07200
N 	N 	0.52392 0.43040 -0.03456 -0.15300
C 	C 	0.49954 0.39058 -0.33079 -0.03000
C 	C 	0.56060 0.39028 -0.33732 -0.01800
C 	C 	0.72506 0.41812 -0.08010 -0.09800
C 	C 	0.79012 0.43373 -0.07908 0.05000
C 	C 	0.86258 0.49316 0.01215 -0.05200
C 	C 	0.92602 0.50358 0.02102 -0.03100
C 	C 	0.91790 0.45440 -0.06055 0.02100
C 	C 	0.97807 0.45522 -0.03586 -0.04700
C 	C 	0.84591 0.39688 -0.15714 0.03300
C 	C 	0.78207 0.38680 -0.16672 0.00000
H 	H 	0.88769 0.29982 0.74326 -0.04600
H 	H 	0.75529 0.24347 0.61567 0.01800
H 	H 	0.64550 0.22976 0.59175 0.03400
H 	H 	0.59039 0.27207 0.66032 0.05000
H 	H 	0.60223 0.38481 -0.09031 0.05100
H 	H 	0.49754 0.20052 0.80624 -0.00600
H 	H 	0.52585 0.22132 -0.00279 0.03000
H 	H 	0.40918 0.18859 -0.05651 0.03700
H 	H 	0.39599 0.19751 -0.26043 0.04700
H 	H 	0.28554 0.30482 1.22982 0.01600
H 	H 	0.38033 0.34204 1.31629 0.00900
H 	H 	0.32605 0.18305 0.44277 0.06300
H 	H 	0.28203 0.20976 1.49154 0.02600
H 	H 	0.17062 0.13770 1.26941 0.02700
H 	H 	0.15576 0.03933 0.14722 0.04700
H 	H 	0.25299 0.08544 0.24185 0.03200
H 	H 	0.20333 0.19650 1.01368 0.04300
H 	H 	0.25102 0.17447 -0.02881 0.08600
H 	H 	0.64425 0.47795 0.23241 0.02900
H 	H 	0.66730 0.54739 0.34486 0.02800
H 	H 	0.71901 0.61701 1.03466 0.04100
H 	H 	0.77977 0.62569 1.22297 0.04200
H 	H 	0.77010 0.75950 1.02640 0.04000
H 	H 	0.69247 0.76839 1.08383 0.03500
H 	H 	0.67802 0.68814 1.26664 0.03100
H 	H 	0.60368 0.64382 0.93611 -0.00800
H 	H 	0.55631 0.61356 0.08018 0.02500
H 	H 	0.45549 0.37363 -0.44059 0.06000
H 	H 	0.52876 0.46098 -0.32435 0.05300
H 	H 	0.61316 0.46230 -0.37308 0.04600
H 	H 	0.53584 0.35080 0.57284 0.00900
H 	H 	0.73110 0.45347 -0.01139 0.05600
H 	H 	0.86988 0.53094 0.07766 0.05400
H 	H 	0.98085 0.54841 0.09449 0.04500
H 	H 	1.03079 0.49328 0.04837 0.05400
