data_crystal

_cell_length_a 29.91350
_cell_length_b 31.50150
_cell_length_c 20.08980
_cell_angle_alpha 86.96570
_cell_angle_beta  91.81950
_cell_angle_gamma 85.84120

_symmetry_space_group_name_	'P 1'
_symmetry_space_group_name_H-M	'P 1'

loop_
_symmetry_equiv_pos_as_xyz
  x,y,z

loop_
_atom_site_label
_atom_site_type_symbol
_atom_site_fract_x
_atom_site_fract_y
_atom_site_fract_z
_atom_site_charge
Eu	Eu	0.70334 0.03741 0.78052 1.84800
O 	O 	0.80247 0.04532 0.73988 -0.30800
C 	C 	0.65756 -0.00198 0.66312 0.31000
O 	O 	0.78204 0.99694 0.95719 -0.22700
O 	O 	0.75284 1.03778 0.86961 -0.40700
O 	O 	0.59041 1.11275 0.85081 -0.19300
O 	O 	0.68675 -0.02883 0.68376 -0.35100
O 	O 	0.65295 0.03679 0.69311 -0.45300
O 	O 	0.73926 0.08937 0.72460 -0.43100
C 	C 	0.78546 0.08053 0.72231 0.30900
O 	O 	0.66002 0.09064 0.82500 -0.41000
C 	C 	0.61838 0.08264 0.85065 0.24300
C 	C 	0.77237 0.99891 0.89767 0.29100
Eu	Eu	0.04434 0.33423 0.50305 1.74900
O 	O 	1.00164 0.26430 0.58998 -0.29300
C 	C 	0.06009 0.40336 0.59919 0.29600
O 	O 	0.08677 0.27197 0.37800 -0.26600
O 	O 	0.04807 0.26576 0.47209 -0.41800
O 	O 	0.05696 0.40523 0.39432 -0.30700
O 	O 	0.08094 0.37164 0.62463 -0.34700
O 	O 	0.04052 0.40236 0.53567 -0.43300
O 	O 	0.97484 0.32850 0.54402 -0.41900
C 	C 	0.96951 0.29000 0.57885 0.29400
O 	O 	0.00841 0.35382 0.40343 -0.42100
C 	C 	0.02562 0.38824 0.36954 0.29500
C 	C 	0.08588 0.25734 0.43535 0.25200
Eu	Eu	0.35344 -0.00800 0.25247 1.76900
O 	O 	0.31967 0.02666 0.37433 -0.32900
C 	C 	0.43247 -0.02696 0.35410 0.25000
O 	O 	0.32525 0.92476 0.15842 -0.30500
O 	O 	0.28634 0.97951 0.20333 -0.43400
O 	O 	0.42258 0.95118 0.17404 -0.31100
O 	O 	0.40369 -0.04254 0.38702 -0.30500
O 	O 	0.42049 0.00329 0.30259 -0.42900
O 	O 	0.32543 0.05904 0.27273 -0.42900
C 	C 	0.30916 0.05762 0.33670 0.29900
O 	O 	0.38192 0.01368 0.15326 -0.42400
C 	C 	0.41774 -0.01517 0.14101 0.28800
C 	C 	0.28928 0.93964 0.17673 0.28800
Eu	Eu	0.03976 0.69488 -0.01721 1.74500
O 	O 	1.00718 0.76645 0.89275 -0.31700
C 	C 	0.03674 0.63439 0.86445 0.29200
O 	O 	0.10237 0.76047 0.01708 -0.34600
O 	O 	0.05999 0.72049 0.08220 -0.43200
O 	O 	0.07909 0.62691 0.08029 -0.32100
O 	O 	0.06051 0.61245 0.90514 -0.30400
O 	O 	0.01656 0.67311 0.88196 -0.42900
O 	O 	0.97513 0.73762 0.98267 -0.40800
C 	C 	0.97527 0.76732 0.92902 0.30300
O 	O 	0.00864 0.63928 0.03648 -0.43100
C 	C 	0.04137 0.61492 0.07540 0.30200
C 	C 	0.08562 0.75508 0.07110 0.28600
C 	C 	0.60750 1.04073 0.88144 -0.06900
C 	C 	0.63590 1.00341 0.87789 0.04500
C 	C 	0.62489 0.96489 0.90864 -0.05700
C 	C 	0.58636 0.96332 0.94568 -0.03500
C 	C 	0.55843 1.00037 0.95196 0.02100
C 	C 	0.52120 1.00007 0.99907 0.03600
C 	C 	0.47696 -0.00597 0.97618 -0.01500
C 	C 	0.46691 -0.01056 0.90785 -0.04700
C 	C 	0.42347 -0.01698 0.88556 -0.03700
C 	C 	0.38926 -0.01907 0.93065 0.01500
C 	C 	0.39826 -0.01496 -0.00159 -0.09200
C 	C 	0.44200 -0.00834 0.02240 0.05200
C 	C 	0.45153 -0.00500 0.09130 -0.13000
C 	C 	0.49532 1.00330 0.11360 0.08000
C 	C 	0.50511 1.00962 0.18149 -0.04800
C 	C 	0.54837 1.01656 0.20390 -0.01500
C 	C 	0.58273 1.01788 0.15913 -0.03900
C 	C 	0.57396 1.01255 0.09168 -0.02000
C 	C 	0.53027 1.00539 0.06761 -0.04600
C 	C 	0.56851 0.03862 0.91892 -0.05300
H 	H 	0.66693 1.00348 0.85288 -0.15700
H 	H 	0.64706 0.93642 0.90540 0.03800
H 	H 	0.57910 0.93367 0.97143 0.04700
H 	H 	0.49248 0.99070 0.87104 0.05900
H 	H 	0.41635 -0.02040 0.83303 0.03700
H 	H 	0.35557 -0.02401 0.91304 0.03000
H 	H 	0.37060 -0.01679 0.03163 0.06000
H 	H 	0.47938 0.00970 0.21782 0.04300
H 	H 	0.55520 1.02098 0.25623 0.04000
H 	H 	0.61631 1.02332 0.17665 0.04200
H 	H 	0.60179 1.01415 0.05877 0.03600
H 	H 	0.54681 0.06709 0.92515 0.05900
C 	C 	0.00536 0.40382 0.30389 -0.06600
C 	C 	-0.02766 0.38100 0.27335 -0.00700
C 	C 	-0.04774 0.39567 0.21194 -0.03400
C 	C 	-0.03529 0.43328 0.18035 -0.04700
C 	C 	-0.00250 0.45643 0.21010 0.01400
C 	C 	0.00964 0.49699 0.17705 -0.02900
C 	C 	0.04295 0.49653 0.12857 -0.00200
C 	C 	0.06617 0.45785 0.11254 -0.03800
C 	C 	0.09807 0.45723 0.06353 -0.03300
C 	C 	0.10747 0.49487 0.02942 -0.01900
C 	C 	0.08537 0.53345 0.04453 -0.05700
C 	C 	0.05318 0.53522 0.09470 0.04800
C 	C 	0.03063 0.57447 0.11048 -0.09900
C 	C 	-0.00223 0.57489 0.15987 0.02600
C 	C 	0.97555 0.61355 0.17812 -0.03600
C 	C 	0.94284 0.61372 0.22600 -0.02800
C 	C 	0.93179 0.57566 0.25717 -0.02200
C 	C 	0.95357 0.53719 0.24102 -0.04600
C 	C 	0.98700 0.53604 0.19271 0.02200
C 	C 	0.01796 0.44162 0.27162 -0.02600
H 	H 	-0.03811 0.35181 0.29694 0.04500
H 	H 	-0.07325 0.37796 0.18904 0.03300
H 	H 	-0.05134 0.44457 0.13298 0.03900
H 	H 	0.05990 0.42769 0.13753 0.04300
H 	H 	0.11541 0.42734 0.05173 0.03400
H 	H 	0.13200 0.49418 -0.00906 0.03000
H 	H 	0.09370 0.56166 0.01603 0.05300
H 	H 	0.98326 0.64408 0.15603 0.05200
H 	H 	0.92601 0.64356 0.23905 0.03700
H 	H 	0.90634 0.57593 0.29430 0.03600
H 	H 	0.94394 0.50845 0.26689 0.05000
H 	H 	0.04309 0.45988 0.29442 0.05100
C 	C 	0.47996 0.95893 0.36662 -0.01000
C 	C 	0.50346 0.93794 0.31709 -0.03400
C 	C 	0.54914 0.92585 0.32655 -0.01500
C 	C 	0.57176 0.93490 0.38528 -0.05800
C 	C 	0.54870 0.95601 0.43509 0.04100
C 	C 	0.57403 0.96819 0.49488 0.01200
C 	C 	0.57579 0.94194 0.55439 -0.02200
C 	C 	0.55256 0.90438 0.55857 -0.02500
C 	C 	0.55393 0.87875 0.61736 -0.03700
C 	C 	0.57768 0.89025 0.67335 -0.01000
C 	C 	0.60108 0.92694 0.67051 -0.06800
C 	C 	0.60163 0.95282 0.61072 0.08700
C 	C 	0.62726 -0.01092 0.60649 -0.14200
C 	C 	0.62551 0.01532 0.54662 0.07300
C 	C 	0.65134 0.05118 0.53991 -0.06900
C 	C 	0.64984 0.07646 0.48068 -0.01100
C 	C 	0.62292 0.06669 0.42685 -0.04300
C 	C 	0.59742 0.03150 0.43176 -0.02400
C 	C 	0.59852 0.00503 0.49109 -0.03900
C 	C 	0.50256 -0.03241 0.42609 -0.07900
H 	H 	0.48644 0.93092 0.27109 0.04600
H 	H 	0.56715 0.90991 0.28796 0.03300
H 	H 	0.60739 0.92614 0.39165 0.04900
H 	H 	0.53328 0.89434 0.51650 0.04300
H 	H 	0.53621 0.84998 0.61956 0.04100
H 	H 	0.57809 0.87059 0.71925 0.03300
H 	H 	0.61842 0.93475 0.71578 0.05200
H 	H 	0.67336 0.05994 0.57971 0.05400
H 	H 	0.66987 0.10368 0.47644 0.03000
H 	H 	0.62201 0.08627 0.38080 0.03600
H 	H 	0.57718 0.02514 0.38834 0.03300
H 	H 	0.48477 -0.01567 0.46422 0.05600
C 	C 	0.02915 0.62084 0.79598 -0.06800
C 	C 	0.01120 0.65098 0.74621 -0.00600
C 	C 	0.00445 0.63935 0.68084 -0.04100
C 	C 	0.01481 0.59746 0.66448 -0.05400
C 	C 	0.03183 0.56678 0.71358 0.01800
C 	C 	0.04073 0.52217 0.69487 -0.03000
C 	C 	1.00455 0.49597 0.68765 0.02400
C 	C 	0.96129 0.50887 0.70913 -0.04600
C 	C 	0.92578 0.48298 0.70205 -0.02000
C 	C 	0.93244 0.44391 0.67344 -0.02800
C 	C 	0.97463 0.43051 0.65156 -0.03300
C 	C 	0.01133 0.45614 0.65814 0.02400
C 	C 	0.05434 0.44258 0.63626 -0.09600
C 	C 	0.09117 0.46746 0.64765 0.04800
C 	C 	0.13484 0.45391 0.62866 -0.05500
C 	C 	0.17074 0.47892 0.63885 -0.02000
C 	C 	0.16401 0.51795 0.66754 -0.03000
C 	C 	0.12131 0.53226 0.68627 -0.03800
C 	C 	0.08430 0.50741 0.67696 0.00100
C 	C 	0.03930 0.57845 0.77933 -0.02700
H 	H 	0.00262 0.68372 0.75762 0.04200
H 	H 	0.99104 0.66286 0.64280 0.04700
H 	H 	1.00921 0.58871 0.61363 0.05400
H 	H 	0.95460 0.53881 0.73232 0.05100
H 	H 	0.89298 0.49319 0.71923 0.03700
H 	H 	0.90483 0.42378 0.66841 0.03800
H 	H 	0.97823 0.39966 0.63030 0.04500
H 	H 	0.14182 0.42394 0.60581 0.04500
H 	H 	0.20395 0.46799 0.62418 0.03300
H 	H 	0.19200 0.53728 0.67526 0.03700
H 	H 	0.11773 0.56287 0.70827 0.04400
H 	H 	0.05238 0.55457 0.81714 0.05200
C 	C 	0.78529 0.96164 0.85781 -0.13000
C 	C 	0.77230 0.96055 0.79025 0.07700
C 	C 	0.78774 0.92705 0.75223 -0.06800
C 	C 	0.81752 0.89456 0.78056 -0.02100
C 	C 	0.83133 0.89482 0.84780 -0.00800
C 	C 	0.86691 0.86251 0.87535 0.00000
C 	C 	0.85817 0.81886 0.88255 -0.01300
C 	C 	0.81454 0.80567 0.87074 -0.03000
C 	C 	0.80648 0.76260 0.87402 -0.03400
C 	C 	0.84151 0.73181 0.88875 -0.01300
C 	C 	0.88467 0.74387 0.90178 -0.05800
C 	C 	0.89367 0.78742 0.90066 0.06000
C 	C 	0.93734 0.79991 0.91535 -0.10500
C 	C 	0.94542 0.84377 0.91232 0.05800
C 	C 	0.98799 0.85736 0.93070 -0.04800
C 	C 	0.99679 0.90014 0.92350 -0.00200
C 	C 	0.96367 0.93024 0.89774 -0.03300
C 	C 	0.92113 0.91798 0.88103 -0.02800
C 	C 	0.91070 0.87492 0.88988 -0.01000
C 	C 	0.81414 0.92766 0.88671 0.00600
H 	H 	0.75126 0.98580 0.76563 -0.14500
H 	H 	0.77755 0.92697 0.70004 0.05900
H 	H 	0.83051 0.86961 0.74982 0.04100
H 	H 	0.78622 0.82843 0.85881 0.04100
H 	H 	0.77295 0.75306 0.86442 0.04000
H 	H 	0.83524 0.69835 0.89019 0.03800
H 	H 	0.91072 0.71859 0.91215 0.06100
H 	H 	0.01492 0.83520 0.95101 0.04900
H 	H 	0.02962 0.90990 0.93735 0.03200
H 	H 	0.97090 0.96334 0.89086 0.04900
H 	H 	0.89686 0.94273 0.86070 0.05000
H 	H 	0.82551 0.92783 0.93844 0.04900
C 	C 	0.12454 0.23107 0.46614 -0.08300
C 	C 	0.13151 0.22933 0.53578 -0.00500
C 	C 	0.16733 0.20384 0.56615 -0.04200
C 	C 	0.19604 0.17930 0.52759 -0.03900
C 	C 	0.18939 0.18054 0.45809 0.00500
C 	C 	0.21807 0.15173 0.41854 -0.00700
C 	C 	0.26177 0.16234 0.40237 -0.01200
C 	C 	0.27694 0.20249 0.41662 -0.03200
C 	C 	0.32022 0.21260 0.40175 -0.03600
C 	C 	0.34928 0.18305 0.37280 -0.01500
C 	C 	0.33522 0.14321 0.35826 -0.06200
C 	C 	0.29135 0.13222 0.37223 0.05900
C 	C 	0.27697 0.09164 0.35834 -0.10800
C 	C 	0.23222 0.08219 0.37037 0.05200
C 	C 	0.21603 0.04303 0.35255 -0.05400
C 	C 	0.17244 0.03330 0.36615 -0.02200
C 	C 	0.14403 0.06217 0.39754 -0.03300
C 	C 	0.15888 0.10114 0.41495 -0.03500
C 	C 	0.20286 0.11208 0.40114 -0.00900
C 	C 	0.15410 0.20703 0.42727 -0.02000
H 	H 	0.10938 0.24789 0.56664 -0.00200
H 	H 	0.17251 0.20276 0.61979 0.03800
H 	H 	0.22309 0.15883 0.55182 0.04300
H 	H 	0.25550 0.22651 0.43907 0.03900
H 	H 	0.33127 0.24349 0.41293 0.03700
H 	H 	0.38291 0.19105 0.36155 0.03300
H 	H 	0.35902 0.12131 0.33578 0.05700
H 	H 	0.23668 0.01969 0.32740 0.03500
H 	H 	0.16068 0.00317 0.35230 0.02900
H 	H 	0.11026 0.05440 0.40831 0.03500
H 	H 	0.13539 0.12254 0.43903 0.04500
H 	H 	0.14883 0.20761 0.37357 0.04700
C 	C 	0.92466 0.28094 0.60195 -0.06600
C 	C 	0.89136 0.31466 0.60440 -0.00500
C 	C 	0.84861 0.30695 0.62552 -0.03300
C 	C 	0.83837 0.26555 0.64346 -0.04000
C 	C 	0.87083 0.23141 0.64033 0.01000
C 	C 	0.85782 0.18768 0.65734 -0.00700
C 	C 	0.86468 0.16992 0.72341 -0.01100
C 	C 	0.89197 0.18905 0.77037 -0.03000
C 	C 	0.89734 0.17241 0.83603 -0.03300
C 	C 	0.87569 0.13662 0.85638 -0.01100
C 	C 	0.84852 0.11721 0.81126 -0.06200
C 	C 	0.84262 0.13322 0.74415 0.06000
C 	C 	0.81378 0.11447 0.69859 -0.11200
C 	C 	0.80965 0.13035 0.63126 0.05900
C 	C 	0.78320 0.11068 0.58384 -0.05800
C 	C 	0.77871 0.12675 0.51782 -0.01700
C 	C 	0.80051 0.16247 0.49748 -0.03400
C 	C 	0.82693 0.18239 0.54308 -0.03200
C 	C 	0.83192 0.16686 0.61049 -0.01100
C 	C 	0.91419 0.23909 0.62014 -0.02200
H 	H 	0.89841 0.34711 0.59043 0.04200
H 	H 	0.82328 0.33312 0.62770 0.03900
H 	H 	0.80499 0.25991 0.65950 0.04600
H 	H 	0.90941 0.21698 0.75688 0.04500
H 	H 	0.91819 0.18751 0.87143 0.04300
H 	H 	0.87970 0.12396 0.90753 0.03900
H 	H 	0.83212 0.08973 0.82985 0.06300
H 	H 	0.76596 0.08257 0.59713 0.04600
H 	H 	0.75825 0.11135 0.48227 0.03000
H 	H 	0.79694 0.17479 0.44610 0.03700
H 	H 	0.84361 0.20986 0.52490 0.04400
H 	H 	0.93921 0.21262 0.61765 0.05200
C 	C 	0.09162 0.78544 0.12357 -0.07100
C 	C 	0.06133 0.78833 0.17548 -0.00600
C 	C 	0.06640 0.81767 0.22449 -0.03600
C 	C 	0.10204 0.84392 0.22275 -0.04200
C 	C 	0.13278 0.84101 0.17169 0.00800
C 	C 	0.17261 0.86641 0.17263 -0.00800
C 	C 	0.17220 0.90556 0.13448 -0.01600
C 	C 	0.13383 0.92151 0.09542 -0.02700
C 	C 	0.13388 0.95949 0.05659 -0.04800
C 	C 	0.17187 0.98241 0.05590 0.01400
C 	C 	0.20995 0.96773 0.09455 -0.07300
C 	C 	0.21080 0.92941 0.13483 0.06400
C 	C 	0.24941 0.91435 0.17434 -0.11100
C 	C 	0.24954 0.87532 0.21315 0.04700
C 	C 	0.28695 0.86006 0.25496 -0.05400
C 	C 	0.28724 0.82133 0.29188 -0.02300
C 	C 	0.25029 0.79717 0.28889 -0.03100
C 	C 	0.21258 0.81183 0.24959 -0.03600
C 	C 	0.21131 0.85109 0.21153 -0.00900
C 	C 	0.12727 0.81214 0.12186 -0.02200
H 	H 	0.03342 0.76831 0.17771 0.03800
H 	H 	0.04280 0.81988 0.26413 0.03600
H 	H 	0.10615 0.86603 0.26159 0.04300
H 	H 	0.10349 0.90479 0.09429 0.03700
H 	H 	0.10432 0.97114 0.02671 0.03800
H 	H 	0.17186 0.01171 0.02521 0.00800
H 	H 	0.23872 0.98659 0.09195 0.06500
H 	H 	0.31630 0.87784 0.26015 0.02600
H 	H 	0.31627 0.81007 0.32315 0.03300
H 	H 	0.25066 0.76710 0.31767 0.03700
H 	H 	0.18450 0.79203 0.24955 0.04400
H 	H 	0.15134 0.80991 0.08278 0.04600
