data_crystal

_cell_length_a 22.37370
_cell_length_b 24.44340
_cell_length_c 26.78590
_cell_angle_alpha 92.87390
_cell_angle_beta  95.94830
_cell_angle_gamma 88.60830

_symmetry_space_group_name_	'P 1'
_symmetry_space_group_name_H-M	'P 1'

loop_
_symmetry_equiv_pos_as_xyz
  x,y,z

loop_
_atom_site_label
_atom_site_type_symbol
_atom_site_fract_x
_atom_site_fract_y
_atom_site_fract_z
_atom_site_charge
O 	O 	0.17849 0.96330 -0.01626 -0.46800
Sm	Sm	0.25279 0.94898 0.93252 2.07600
O 	O 	0.18264 0.88704 0.94446 -0.54200
C 	C 	0.18135 0.00644 0.86553 0.40300
O 	O 	0.19481 1.02300 0.91057 -0.47700
O 	O 	0.20281 0.95948 0.85562 -0.53500
C 	C 	0.33503 0.00548 0.99129 0.35600
C 	C 	0.15698 0.91599 -0.02348 0.39900
O 	O 	0.32066 0.01550 0.94543 -0.51600
O 	O 	0.30632 0.96638 0.00684 -0.51300
O 	O 	0.09393 0.73810 0.19667 -0.51600
Sm	Sm	0.09930 0.71790 0.27765 2.08500
O 	O 	0.11925 0.80096 0.25306 -0.51800
C 	C 	1.05052 0.75463 0.36158 0.39500
O 	O 	0.02787 0.76485 0.31776 -0.46400
O 	O 	0.09826 0.72600 0.36170 -0.54300
C 	C 	1.01075 0.64357 0.26473 0.39000
C 	C 	0.11217 0.78698 0.20630 0.33900
O 	O 	1.00218 0.69371 0.25628 -0.46000
O 	O 	0.06451 0.63225 0.28030 -0.54100
O 	O 	0.80639 0.07697 0.45876 -0.54000
Sm	Sm	0.74903 1.00564 0.43289 2.25600
O 	O 	0.79902 1.01148 0.50908 -0.54300
C 	C 	0.64539 0.97174 0.45675 0.35200
O 	O 	0.66287 1.02101 0.46609 -0.54500
O 	O 	0.68164 0.93996 0.43437 -0.53700
C 	C 	0.78270 0.98610 0.34253 0.33300
C 	C 	0.82195 0.05758 0.50183 0.35700
O 	O 	0.73060 1.00624 0.34948 -0.53200
O 	O 	0.81710 0.97646 0.38244 -0.53200
O 	O 	-0.01362 0.71749 0.64224 -0.53100
Sm	Sm	-0.00996 0.73575 0.72498 2.25400
O 	O 	0.02640 0.79260 0.67391 -0.53900
C 	C 	0.93818 0.80658 0.78511 0.35600
O 	O 	0.91560 0.79446 0.74004 -0.54100
O 	O 	-0.01261 0.78110 0.79901 -0.54200
C 	C 	0.02722 0.63819 0.75447 0.34400
C 	C 	0.01484 0.76074 0.63485 0.34000
O 	O 	-0.02637 0.65645 0.75867 -0.53500
O 	O 	0.06111 0.67128 0.73572 -0.54000
O 	O 	-0.00649 0.22464 0.27622 -0.53500
Sm	Sm	-0.00364 0.27924 0.21218 2.24200
O 	O 	0.07346 0.22471 0.23725 -0.53300
C 	C 	1.00092 0.26765 0.11432 0.34500
O 	O 	-0.01681 0.22910 0.13973 -0.54100
O 	O 	0.01593 0.31162 0.13988 -0.53800
C 	C 	0.94784 0.37057 0.24795 0.34500
C 	C 	0.04673 0.20546 0.27247 0.33600
O 	O 	0.91997 0.33947 0.21377 -0.53700
O 	O 	0.00006 0.35287 0.26472 -0.53400
O 	O 	0.18530 0.00557 0.48489 -0.53800
Sm	Sm	0.25854 0.01594 0.54740 2.25500
O 	O 	0.19358 0.08356 0.52668 -0.54100
C 	C 	0.26242 1.02853 0.64605 0.33100
O 	O 	0.21640 0.00982 0.61864 -0.52700
O 	O 	0.30672 0.04020 0.62204 -0.53200
C 	C 	0.34639 0.96404 0.50466 0.33900
C 	C 	0.16510 0.05464 0.49110 0.35400
O 	O 	0.32106 0.94448 0.54051 -0.53700
O 	O 	0.32643 0.01124 0.49165 -0.53200
O 	O 	0.00721 0.22310 0.83088 -0.46800
Sm	Sm	0.07035 0.24316 0.77350 2.07500
O 	O 	0.09628 0.19334 0.84167 -0.53500
C 	C 	1.00872 0.16233 0.72007 0.37600
O 	O 	0.98394 0.20252 0.74173 -0.45700
O 	O 	0.06534 0.16330 0.72695 -0.53100
C 	C 	0.02785 0.34411 0.75794 0.35900
C 	C 	0.04570 0.19667 0.85849 0.39000
O 	O 	0.02917 0.30706 0.72290 -0.52300
O 	O 	0.04836 0.32849 0.80127 -0.52500
O 	O 	0.84965 0.97871 0.02560 -0.50100
Sm	Sm	0.76868 0.02372 0.05030 2.07100
O 	O 	0.79417 0.02485 0.97185 -0.51300
C 	C 	0.65039 0.01515 1.02011 0.35300
O 	O 	0.68949 -0.02046 1.00926 -0.44000
O 	O 	0.67240 0.05567 0.04644 -0.51700
C 	C 	0.74581 -0.05639 0.11055 0.38300
C 	C 	0.84019 0.99361 0.98045 0.33100
O 	O 	0.75825 -0.00805 0.12661 -0.52700
O 	O 	0.74481 -0.06327 0.06339 -0.44200
C 	C 	0.38214 0.03657 0.02411 -0.19700
C 	C 	0.43316 0.99872 0.04637 -0.03000
C 	C 	0.48834 0.99844 0.01821 -0.00200
C 	C 	0.54262 0.02000 0.03862 0.00400
C 	C 	0.58562 0.00792 1.00615 -0.11900
C 	C 	0.55905 0.97967 0.96348 0.05800
C 	C 	0.58851 -0.03611 0.92162 -0.06200
C 	C 	0.56437 0.93561 0.87815 -0.01900
C 	C 	0.50716 0.91408 0.86690 -0.04200
C 	C 	0.45869 0.91532 0.89575 -0.03600
C 	C 	0.45336 0.94109 0.94260 -0.03100
C 	C 	0.49625 0.97241 0.97167 -0.02600
H 	H 	0.40027 0.06918 0.00270 0.08100
H 	H 	0.35987 0.05730 0.05531 0.07300
H 	H 	0.44606 1.01383 0.08579 0.02900
H 	H 	0.41797 0.95606 0.04878 0.03400
H 	H 	0.55110 0.03953 0.07578 0.02800
H 	H 	0.63480 -0.02423 0.92168 0.05800
H 	H 	0.59463 0.92849 0.84929 0.02900
H 	H 	0.49948 0.89250 0.83055 0.03000
H 	H 	0.41923 0.89384 0.87892 -0.00200
H 	H 	0.41107 0.93538 0.95738 -0.00500
C 	C 	0.96320 0.60109 0.25524 -0.21000
C 	C 	0.95660 0.56932 0.30242 -0.02200
C 	C 	0.92874 0.51443 0.28825 -0.01400
C 	C 	0.96195 0.46649 0.28354 0.00400
C 	C 	0.92443 0.42479 0.26436 -0.11200
C 	C 	0.86560 0.44559 0.25740 0.05800
C 	C 	0.81517 0.41518 0.24002 -0.07000
C 	C 	0.75627 0.43464 0.23089 -0.01400
C 	C 	0.73319 0.48777 0.23726 -0.04400
C 	C 	0.76231 0.53563 0.25540 -0.02500
C 	C 	0.82272 0.54334 0.27146 -0.04100
C 	C 	0.86866 0.50391 0.27263 -0.01000
H 	H 	-0.08049 0.62064 0.24191 0.08100
H 	H 	-0.02345 0.57242 0.22462 0.07300
H 	H 	1.00148 0.56221 0.32331 0.03800
H 	H 	0.92931 0.59349 0.32833 0.03000
H 	H 	0.01043 0.46313 0.29034 0.02900
H 	H 	0.82122 0.37161 0.23282 0.05300
H 	H 	0.72362 0.40417 0.21661 0.02300
H 	H 	0.68524 0.49248 0.22702 0.03200
H 	H 	0.73379 0.57199 0.25735 0.02900
H 	H 	0.83436 0.58483 0.28413 0.03700
C 	C 	0.58752 -0.04732 0.47251 -0.19700
C 	C 	0.54068 0.94182 0.42741 -0.02900
C 	C 	0.48276 0.92502 0.44581 -0.01100
C 	C 	0.43798 0.96187 0.45761 -0.00600
C 	C 	0.39605 0.93514 0.48150 -0.11000
C 	C 	0.41292 0.87988 0.48402 0.05700
C 	C 	0.37953 0.83949 0.50264 -0.07100
C 	C 	0.39544 0.78450 0.50737 -0.01500
C 	C 	0.44800 0.75680 0.49626 -0.04500
C 	C 	0.49759 0.77579 0.47530 -0.02600
C 	C 	0.50732 0.82757 0.45889 -0.04300
C 	C 	0.46978 0.87364 0.46176 -0.01300
H 	H 	0.59645 -0.08496 0.49393 0.07500
H 	H 	0.56951 -0.01509 0.49806 0.07900
H 	H 	0.53258 -0.02012 0.40639 0.02900
H 	H 	0.55696 0.90968 0.40098 0.03500
H 	H 	0.43802 0.00546 0.45220 0.03300
H 	H 	0.33606 0.85085 0.51438 0.05600
H 	H 	0.36276 0.75984 0.52273 0.02500
H 	H 	0.45048 0.71391 0.50483 0.03100
H 	H 	0.53318 0.74571 0.47034 0.02700
H 	H 	0.54913 0.83166 0.44259 0.03700
C 	C 	1.00477 0.40114 0.74770 -0.20100
C 	C 	1.00931 0.44094 0.79457 -0.01700
C 	C 	0.03811 0.49371 0.78452 -0.02400
C 	C 	1.00720 0.54266 0.77761 0.01000
C 	C 	0.04700 0.58233 0.76823 -0.11800
C 	C 	0.10498 0.55899 0.77009 0.05900
C 	C 	0.15746 0.58666 0.76440 -0.07400
C 	C 	0.21543 0.56461 0.76498 -0.01400
C 	C 	0.23574 0.51094 0.77211 -0.04700
C 	C 	0.20384 0.46483 0.78114 -0.02800
C 	C 	0.14274 0.46004 0.78489 -0.04600
C 	C 	0.09877 0.50130 0.78022 -0.01100
H 	H 	1.03013 0.41657 0.71786 0.07400
H 	H 	0.95698 0.39872 0.73169 0.07600
H 	H 	0.96338 0.44960 0.80571 0.02800
H 	H 	0.03577 0.42364 0.82753 0.03800
H 	H 	0.95909 0.54849 0.77777 0.03100
H 	H 	0.15448 0.63011 0.75922 0.05900
H 	H 	0.24989 0.59337 0.75917 0.02200
H 	H 	0.28361 0.50413 0.77086 0.02900
H 	H 	0.23043 0.42744 0.78592 0.01500
H 	H 	0.12874 0.41939 0.79217 0.02500
C 	C 	0.10876 0.89496 0.00520 -0.21000
C 	C 	0.12914 0.84103 0.03044 -0.02200
C 	C 	0.13652 0.84594 0.08725 -0.01400
C 	C 	0.10489 0.81470 0.11676 -0.00100
C 	C 	0.12761 0.82231 0.16655 -0.11200
C 	C 	0.17460 0.85948 0.16969 0.05500
C 	C 	0.21106 0.87433 0.21349 -0.07300
C 	C 	0.25964 0.90925 0.21834 -0.01600
C 	C 	0.28538 0.93589 0.18138 -0.04300
C 	C 	0.27113 0.93315 0.12950 -0.03000
C 	C 	0.22547 0.90472 0.10092 -0.03300
C 	C 	0.18089 0.87403 0.11819 -0.01500
H 	H 	0.09605 0.92688 0.03346 0.08700
H 	H 	0.06829 0.88718 0.97824 0.07000
H 	H 	0.09504 0.80947 0.01805 0.03100
H 	H 	0.17207 0.82452 0.01775 0.02900
H 	H 	0.07053 0.78575 0.10268 0.03500
H 	H 	0.20140 0.85798 0.24831 0.05000
H 	H 	0.28065 0.91662 0.25636 0.02400
H 	H 	0.32317 0.96136 0.19488 0.03200
H 	H 	0.30002 0.95615 0.10849 0.04300
H 	H 	0.22543 0.90736 0.06095 0.03500
C 	C 	0.86651 0.08520 0.53978 -0.20000
C 	C 	0.84784 0.08487 0.59352 -0.02700
C 	C 	0.90246 0.08635 0.63138 -0.01000
C 	C 	0.91979 0.13179 0.66156 0.00600
C 	C 	0.97467 0.12066 0.68803 -0.12700
C 	C 	0.99273 0.06710 0.67563 0.07100
C 	C 	0.04481 0.04122 0.69631 -0.08300
C 	C 	0.06505 -0.01172 0.68483 -0.00300
C 	C 	0.03892 0.94870 0.65073 -0.05200
C 	C 	0.98460 0.95038 0.62027 -0.01900
C 	C 	0.94209 -0.00729 0.61534 -0.03900
C 	C 	0.94557 0.04469 0.63917 -0.01400
H 	H 	0.91030 0.06347 0.53709 0.07500
H 	H 	0.87244 0.12814 0.52966 0.07700
H 	H 	0.81814 0.12111 0.60001 0.03000
H 	H 	0.82187 0.04799 0.59943 0.04400
H 	H 	0.89579 0.17080 0.66224 0.03400
H 	H 	0.07247 0.06370 0.72532 0.05800
H 	H 	0.10721 -0.02401 0.70519 0.02800
H 	H 	0.06419 0.91058 0.64811 0.04600
H 	H 	0.97388 0.91335 0.59744 0.03300
H 	H 	0.90256 0.98361 0.58970 0.04100
C 	C 	0.90896 0.84842 0.81817 -0.19900
C 	C 	0.94834 0.86354 0.86738 -0.02200
C 	C 	0.92685 0.91681 0.89094 -0.01200
C 	C 	0.89632 0.92097 0.93329 -0.00100
C 	C 	0.87830 0.97490 0.94129 -0.10600
C 	C 	0.89803 1.00635 0.90457 0.05000
C 	C 	0.88720 0.06239 0.90084 -0.05900
C 	C 	0.90556 0.09545 0.86478 -0.02200
C 	C 	0.94075 0.08178 0.82585 -0.02900
C 	C 	-0.03373 0.03146 0.81199 -0.03700
C 	C 	0.96171 0.98065 0.83214 -0.03300
C 	C 	0.93071 0.96885 0.87256 -0.01100
H 	H 	0.89880 0.88539 0.79610 0.07900
H 	H 	0.86546 0.83238 0.82716 0.07400
H 	H 	0.94626 0.83005 0.89375 0.03500
H 	H 	-0.00385 0.86768 0.86063 0.03600
H 	H 	0.88547 0.88708 0.95506 0.03300
H 	H 	0.86157 0.08324 0.92843 0.03900
H 	H 	0.89148 0.13811 0.86797 0.03400
H 	H 	-0.04985 0.11546 0.80326 0.04400
H 	H 	-0.00714 0.03178 0.78064 0.03600
H 	H 	-0.01470 0.94726 0.81405 0.03100
C 	C 	0.11213 0.07667 0.45876 -0.20000
C 	C 	0.12599 0.13212 0.43791 -0.02400
C 	C 	0.11209 0.13318 0.38172 -0.01400
C 	C 	0.07030 0.16852 0.35821 -0.00300
C 	C 	0.07632 0.16617 0.30735 -0.11100
C 	C 	0.12092 0.12764 0.29736 0.05700
C 	C 	0.13663 0.11239 0.24961 -0.06700
C 	C 	0.18247 0.07616 0.23780 -0.01300
C 	C 	0.22415 0.04807 0.26992 -0.04100
C 	C 	0.22882 0.04547 0.32206 -0.02500
C 	C 	0.19294 0.07067 0.35622 -0.03900
C 	C 	0.14464 0.10665 0.34566 -0.01100
H 	H 	0.09860 0.04579 0.42800 0.08200
H 	H 	0.07382 0.08215 0.48196 0.07100
H 	H 	0.09920 0.16477 0.45629 0.03000
H 	H 	0.17389 0.14320 0.44729 0.03200
H 	H 	0.04112 0.19682 0.37709 0.03000
H 	H 	0.11080 0.13001 0.21776 0.05300
H 	H 	0.18738 0.06986 0.19807 0.03100
H 	H 	0.25774 0.02435 0.25157 0.03600
H 	H 	0.26530 0.01983 0.33821 0.03100
H 	H 	0.20514 0.06136 0.39501 0.03800
C 	C 	0.14521 0.03962 0.82738 -0.22300
C 	C 	0.18277 0.08533 0.80974 -0.01100
C 	C 	0.22718 0.06347 0.77441 -0.02200
C 	C 	0.21227 0.05459 0.72337 -0.00300
C 	C 	0.26272 1.03805 0.70084 -0.11100
C 	C 	0.31151 1.03576 0.73750 0.05000
C 	C 	0.36907 1.01760 0.72872 -0.07000
C 	C 	0.41944 1.01527 0.76364 -0.02000
C 	C 	0.42515 0.03117 0.81459 -0.04500
C 	C 	0.38171 0.05092 0.84500 -0.03000
C 	C 	0.32042 0.05974 0.83257 -0.04900
C 	C 	0.28866 0.05292 0.78525 -0.01300
H 	H 	0.12810 0.01248 0.79480 0.08200
H 	H 	0.10565 0.05795 0.84436 0.08300
H 	H 	0.15183 0.11469 0.78927 0.01600
H 	H 	0.20519 0.10925 0.84241 0.02900
H 	H 	0.16873 0.06239 0.70348 0.03300
H 	H 	0.37632 1.00330 0.69094 0.05400
H 	H 	0.46024 0.99962 0.74899 0.02700
H 	H 	0.47008 0.02712 0.83354 0.03800
H 	H 	0.39797 0.06014 0.88401 0.03800
H 	H 	0.29578 0.07373 0.86352 0.04000
C 	C 	1.02403 0.77470 0.40867 -0.21800
C 	C 	1.03523 0.73300 0.45029 -0.01700
C 	C 	0.04444 0.75942 0.50260 -0.02200
C 	C 	1.00972 0.74813 0.54049 0.00800
C 	C 	0.03555 0.77106 0.58561 -0.11400
C 	C 	0.08788 0.79766 0.57707 0.05500
C 	C 	0.12891 0.82080 0.61447 -0.07200
C 	C 	0.18115 0.84799 0.60820 -0.01800
C 	C 	0.20697 0.85637 0.56424 -0.04800
C 	C 	0.18905 0.83809 0.51500 -0.02800
C 	C 	0.13966 0.80696 0.49657 -0.04600
C 	C 	0.09354 0.79024 0.52324 -0.00800
H 	H 	1.04327 0.81523 0.42077 0.07900
H 	H 	0.97484 0.78156 0.39998 0.08400
H 	H 	0.99633 0.70507 0.44724 0.02800
H 	H 	1.07551 0.70656 0.44543 0.04200
H 	H 	0.97035 0.72274 0.53597 0.03000
H 	H 	0.12005 0.81885 0.65309 0.05200
H 	H 	0.20507 0.86528 0.64244 0.02300
H 	H 	0.24807 0.87916 0.56948 0.01700
H 	H 	0.21817 0.84907 0.48728 0.02100
H 	H 	0.13716 0.79592 0.45687 0.03800
C 	C 	0.73286 -0.10103 0.14376 -0.21000
C 	C 	0.78898 0.88235 0.17772 -0.02500
C 	C 	0.80555 0.92542 0.21881 0.00100
C 	C 	0.77147 0.93617 0.25846 -0.00200
C 	C 	0.80131 0.97276 0.29239 -0.10400
C 	C 	0.85497 0.98672 0.27481 0.05300
C 	C 	0.89599 0.02310 0.29994 -0.06200
C 	C 	0.95101 0.03750 0.28511 -0.02000
C 	C 	0.97760 0.02047 0.24198 -0.03600
C 	C 	0.95599 -0.01444 0.20166 -0.03200
C 	C 	0.90257 0.95682 0.19425 -0.04200
C 	C 	0.85776 0.95634 0.22668 -0.01000
H 	H 	0.69578 -0.08763 0.16641 0.07800
H 	H 	0.71741 0.86255 0.11984 0.08300
H 	H 	0.77957 0.84392 0.19573 0.03200
H 	H 	0.82634 0.87228 0.15456 0.03400
H 	H 	0.73013 0.91606 0.26375 0.02900
H 	H 	0.88453 0.04254 0.33500 0.04700
H 	H 	0.97685 0.06598 0.31063 0.03500
H 	H 	0.02135 1.03746 0.23908 0.03300
H 	H 	0.98521 -0.02020 0.17189 0.03300
H 	H 	0.89636 0.93268 0.15927 0.03300
C 	C 	0.03321 0.17259 0.90668 -0.21800
C 	C 	0.07454 0.19597 0.95211 -0.01900
C 	C 	0.04075 0.23165 0.98778 -0.02000
C 	C 	0.03426 0.21887 0.03668 0.00400
C 	C 	1.00555 0.26215 0.05999 -0.11700
C 	C 	0.99177 0.30282 0.02586 0.06900
C 	C 	0.96041 0.35130 0.03611 -0.07000
C 	C 	0.94470 0.39287 0.00335 -0.01400
C 	C 	0.95799 0.39733 -0.04596 -0.03500
C 	C 	0.99112 0.36199 0.92457 -0.02900
C 	C 	0.01767 0.31147 0.93564 -0.03200
C 	C 	0.01544 0.28349 0.97929 -0.02400
H 	H 	-0.01486 0.17969 0.91258 0.08300
H 	H 	0.04081 0.12755 0.90274 0.08000
H 	H 	0.09610 0.16108 0.97274 0.03200
H 	H 	0.11197 0.21976 0.94032 0.02900
H 	H 	0.05238 0.18255 0.05479 0.02700
H 	H 	0.94491 0.35746 0.07297 0.05100
H 	H 	0.91878 0.42672 0.01836 0.02800
H 	H 	0.94091 0.43422 -0.06377 0.03500
H 	H 	-0.00361 0.37553 0.88753 0.03700
H 	H 	0.04226 0.29256 0.90662 0.03400
