data_crystal

_cell_length_a 24.29820
_cell_length_b 23.67710
_cell_length_c 17.25520
_cell_angle_alpha 84.17230
_cell_angle_beta  83.26120
_cell_angle_gamma 83.78220

_symmetry_space_group_name_	'P 1'
_symmetry_space_group_name_H-M	'P 1'

loop_
_symmetry_equiv_pos_as_xyz
  x,y,z

loop_
_atom_site_label
_atom_site_type_symbol
_atom_site_fract_x
_atom_site_fract_y
_atom_site_fract_z
_atom_site_charge
Eu	Eu	0.69093 0.04372 0.70590 1.80500
O 	O 	0.80248 0.08597 0.72083 -0.26700
C 	C 	0.64322 0.03449 0.54948 0.23500
O 	O 	0.76671 0.93553 0.75422 -0.24500
O 	O 	0.73227 1.01311 0.81642 -0.35000
O 	O 	0.58278 0.99099 0.73455 -0.18800
O 	O 	0.65304 -0.01563 0.57390 -0.24700
O 	O 	0.65025 0.07745 0.59585 -0.33500
O 	O 	0.71692 0.13283 0.71089 -0.31500
C 	C 	0.77402 0.13162 0.71493 0.24600
O 	O 	0.61033 0.06721 0.78173 -0.36800
C 	C 	0.57209 0.02796 0.77952 0.19800
C 	C 	0.77195 0.96716 0.80401 0.28300
Eu	Eu	0.10999 0.30309 0.54699 1.83100
O 	O 	1.07722 0.18182 0.56540 -0.24000
C 	C 	0.12841 0.36476 0.68988 0.23300
O 	O 	0.20603 0.30339 0.40975 -0.27600
O 	O 	0.13290 0.25104 0.44171 -0.41900
O 	O 	0.13842 0.42538 0.50521 -0.26800
O 	O 	0.17360 0.36729 0.65121 -0.21000
O 	O 	0.08329 0.35143 0.65486 -0.37400
O 	O 	1.02566 0.26724 0.56617 -0.35200
C 	C 	1.03102 0.20780 0.57003 0.29000
O 	O 	0.07245 0.37700 0.46835 -0.40100
C 	C 	0.09791 0.42666 0.46949 0.28300
C 	C 	0.18209 0.26319 0.39669 0.29400
Eu	Eu	0.37625 -0.01471 0.22186 1.77800
O 	O 	0.26405 -0.04544 0.30474 -0.21600
C 	C 	0.41421 -0.00298 0.38281 0.28600
O 	O 	0.33490 0.87275 0.21964 -0.20600
O 	O 	0.32501 0.95190 0.13626 -0.30600
O 	O 	0.47865 1.01594 0.11673 -0.14600
O 	O 	0.37585 -0.03287 0.39766 -0.28400
O 	O 	0.42937 0.01711 0.30545 -0.40500
O 	O 	0.30061 0.03882 0.27738 -0.36300
C 	C 	0.25692 0.00631 0.30471 0.25300
O 	O 	0.39290 0.06292 0.13636 -0.33400
C 	C 	0.44868 0.06042 0.10610 0.15600
C 	C 	0.31292 0.89678 0.16363 0.25200
Eu	Eu	0.03695 0.65071 0.04883 1.79700
O 	O 	1.00804 0.74260 0.91310 -0.14700
C 	C 	0.05374 0.60146 0.88955 0.27200
O 	O 	0.12312 0.73112 0.04524 -0.29200
O 	O 	0.05176 0.71174 0.13622 -0.41500
O 	O 	0.05337 0.53314 0.13891 -0.23800
O 	O 	0.07928 0.64354 0.87924 -0.26800
O 	O 	0.02303 0.58914 0.96136 -0.38700
O 	O 	0.95818 0.70796 1.02380 -0.27400
C 	C 	0.96827 0.75011 0.96273 0.24600
O 	O 	-0.01807 0.60284 0.14377 -0.35100
C 	C 	0.00608 0.54857 0.16602 0.24500
C 	C 	0.09611 0.74298 0.10663 0.28400
C 	C 	0.51871 0.03191 0.83056 0.01400
C 	C 	0.48027 -0.00832 0.83052 -0.15400
C 	C 	0.42975 -0.00442 0.87867 0.19800
O 	O 	0.39285 -0.04560 0.87756 -0.26800
C 	C 	0.41721 0.04020 0.92753 -0.04300
C 	C 	0.45531 0.08068 -0.07099 -0.05400
C 	C 	0.44315 0.12788 -0.01618 0.45100
F 	F 	0.46300 0.17748 -0.05340 -0.35400
F 	F 	0.38615 0.13944 0.00197 -0.38400
C 	C 	0.47115 0.11198 0.05989 0.34000
F 	F 	0.46080 0.15737 0.10620 -0.32800
F 	F 	0.52842 1.10180 0.04224 -0.30200
C 	C 	0.50605 0.07601 0.88045 0.06700
H 	H 	0.48961 0.95678 0.79366 0.18000
H 	H 	0.35904 -0.04128 0.91736 0.18800
H 	H 	0.37815 0.04266 0.96507 0.10500
H 	H 	0.53570 0.10692 -0.11831 0.09300
C 	C 	0.07607 0.48042 0.42699 -0.00300
C 	C 	0.10037 0.53147 0.42882 -0.07500
C 	C 	0.07857 0.58231 0.38963 0.17700
O 	O 	0.10213 0.63338 0.39100 -0.25800
C 	C 	0.03230 0.58218 0.34849 -0.05000
C 	C 	0.00742 0.53159 0.34580 -0.03600
C 	C 	0.95668 0.53111 0.30240 0.51800
F 	F 	0.91993 0.49646 0.34628 -0.33600
F 	F 	0.92896 0.58537 0.29404 -0.36100
C 	C 	-0.02763 0.50856 0.22106 0.29100
F 	F 	0.92389 0.50377 0.18825 -0.27700
F 	F 	0.00147 0.45494 0.22843 -0.37200
C 	C 	0.02986 0.48101 0.38485 -0.02300
H 	H 	0.13602 0.53185 0.46092 0.09400
H 	H 	0.13562 0.62975 0.42169 0.17100
H 	H 	0.01595 0.62173 0.31838 0.10100
H 	H 	1.01078 0.44190 0.38311 0.17200
C 	C 	0.44476 0.01212 0.44601 -0.02000
C 	C 	0.42746 -0.00327 0.52515 -0.07400
C 	C 	0.45693 0.01133 0.58438 0.18000
O 	O 	0.44053 -0.00394 0.66318 -0.26800
C 	C 	0.50390 0.04131 0.56443 -0.05600
C 	C 	0.52198 0.05701 0.48570 0.00200
C 	C 	0.57282 0.08978 0.46421 0.44600
F 	F 	0.57196 0.11623 0.38887 -0.34600
F 	F 	0.57092 0.13281 0.51356 -0.36900
C 	C 	0.62770 0.05024 0.46738 0.32400
F 	F 	0.67049 0.07835 0.42580 -0.32700
F 	F 	0.62372 1.00117 0.43147 -0.30700
C 	C 	0.49237 0.04170 0.42689 0.02400
H 	H 	0.39124 -0.02649 0.54122 0.08700
H 	H 	0.40661 -0.02613 0.67214 0.16600
H 	H 	0.52596 0.05275 0.61063 0.10000
H 	H 	0.50676 0.05237 0.36595 0.11500
C 	C 	0.05630 0.56311 0.82694 0.00700
C 	C 	0.05689 0.58511 0.74829 -0.07500
C 	C 	0.05901 0.54820 0.68901 0.18600
O 	O 	0.05825 0.56906 0.61046 -0.26100
C 	C 	0.06120 0.48932 0.70867 -0.04500
C 	C 	0.06202 0.46628 0.78708 -0.01800
C 	C 	1.06571 0.40212 0.80792 0.51900
F 	F 	1.05941 0.39021 0.88867 -0.33300
F 	F 	1.02207 0.38034 0.77984 -0.35900
C 	C 	0.12246 0.37160 0.77647 0.29400
F 	F 	1.12842 0.31720 0.81431 -0.29000
F 	F 	0.16537 0.40070 0.79392 -0.36100
C 	C 	0.05863 0.50400 0.84597 -0.02200
H 	H 	0.05483 0.63076 0.73316 0.09700
H 	H 	0.05648 0.61217 0.60148 0.17000
H 	H 	0.06183 0.46171 0.66234 0.09500
H 	H 	1.05914 0.48761 0.90681 0.17000
C 	C 	0.82054 0.95782 0.84961 0.01100
C 	C 	0.83258 1.00088 0.89371 -0.05400
C 	C 	0.87973 0.99394 0.93416 0.21400
O 	O 	0.89083 1.03815 0.97628 -0.20100
C 	C 	0.91544 0.94338 0.93095 -0.05500
C 	C 	0.90411 0.89950 0.88769 0.05100
C 	C 	0.94281 0.84490 0.88577 0.42700
F 	F 	0.93665 0.81725 0.82046 -0.36900
F 	F 	0.99770 0.85798 0.88002 -0.36100
C 	C 	0.93011 0.80469 0.96042 0.38100
F 	F 	0.87581 0.79061 0.96503 -0.35100
F 	F 	0.93568 0.83212 1.02592 -0.36500
C 	C 	0.85642 0.90709 0.84721 0.01700
H 	H 	0.80588 1.04051 0.89592 0.14600
H 	H 	0.92517 1.02899 1.00506 0.21600
H 	H 	0.95216 0.93821 0.96205 0.15100
H 	H 	0.84703 0.87348 0.81399 0.12700
C 	C 	0.20477 0.22619 0.33405 -0.02200
C 	C 	0.24647 0.24265 0.27523 -0.06400
C 	C 	0.26591 0.20709 0.21539 0.18200
O 	O 	0.30671 0.22313 0.15567 -0.21100
C 	C 	0.24391 0.15488 0.21468 -0.04400
C 	C 	0.20266 0.13743 0.27368 0.00900
C 	C 	0.17773 0.08111 0.27426 0.43500
F 	F 	0.12063 0.09057 0.29206 -0.37800
F 	F 	0.18689 0.06151 0.20041 -0.38500
C 	C 	0.20118 0.03481 0.33535 0.37100
F 	F 	0.16382 -0.00617 0.35388 -0.37700
F 	F 	0.20709 0.05824 0.40370 -0.40400
C 	C 	0.18357 0.17343 0.33285 0.02800
H 	H 	0.26334 0.28320 0.27514 0.09500
H 	H 	0.31972 0.26190 0.16020 0.18900
H 	H 	0.25943 0.12794 0.16825 0.12700
H 	H 	0.15149 0.16015 0.37805 0.10400
C 	C 	0.98084 0.17674 0.57682 0.00200
C 	C 	0.98507 0.11954 0.55976 -0.07100
C 	C 	0.93704 0.09120 0.56157 0.19200
O 	O 	0.94039 0.03463 0.54327 -0.25400
C 	C 	0.88476 0.11999 0.58123 -0.05200
C 	C 	0.87965 0.17660 0.60124 0.02100
C 	C 	0.82272 0.20680 0.62565 0.43500
F 	F 	0.82579 0.26524 0.62084 -0.33100
F 	F 	0.78575 0.19736 0.57391 -0.37300
C 	C 	0.80029 0.18676 0.71060 0.37000
F 	F 	0.76014 0.22781 0.73897 -0.30700
F 	F 	0.84276 0.18049 0.75877 -0.36700
C 	C 	0.92814 0.20473 0.59826 0.02700
H 	H 	1.02546 0.09740 0.54359 0.11300
H 	H 	0.97976 0.01734 0.52847 0.18500
H 	H 	0.84802 0.09801 0.58049 0.09700
H 	H 	0.92497 0.24849 0.61296 0.13100
C 	C 	0.11024 0.78980 0.14921 -0.00700
C 	C 	0.07999 0.80175 0.22115 -0.06800
C 	C 	0.09224 0.84645 0.26129 0.20500
O 	O 	0.06126 0.85696 0.33268 -0.24800
C 	C 	0.13550 0.87952 0.22988 -0.07100
C 	C 	0.16653 0.86825 0.15801 0.04900
C 	C 	0.21418 0.90300 0.12405 0.42900
F 	F 	0.20608 0.92206 0.04722 -0.35200
F 	F 	0.21195 0.95137 0.16371 -0.35600
C 	C 	0.27229 0.86747 0.12600 0.37800
F 	F 	0.29504 0.85919 0.05058 -0.35800
F 	F 	0.26719 0.81417 0.16636 -0.38600
C 	C 	0.15338 0.82335 0.11793 0.01700
H 	H 	0.04660 0.77653 0.24630 0.10800
H 	H 	0.07189 0.89137 0.35622 0.20300
H 	H 	0.14502 0.91359 0.26218 0.16900
H 	H 	0.17691 0.81461 0.06239 0.11700
