data_crystal

_cell_length_a 15.10000
_cell_length_b 14.06240
_cell_length_c 40.53330
_cell_angle_alpha 105.88380
_cell_angle_beta  86.52980
_cell_angle_gamma 93.26660

_symmetry_space_group_name_	'P 1'
_symmetry_space_group_name_H-M	'P 1'

loop_
_symmetry_equiv_pos_as_xyz
  x,y,z

loop_
_atom_site_label
_atom_site_type_symbol
_atom_site_fract_x
_atom_site_fract_y
_atom_site_fract_z
_atom_site_charge
C 	C 	0.50111 0.30046 0.51644 -0.25300
C 	C 	0.53436 0.22799 0.48346 0.14800
C 	C 	0.52734 0.12392 0.47666 -0.15000
C 	C 	0.56261 0.06244 0.44534 0.12600
C 	C 	0.57167 -0.04778 0.44180 -0.18000
C 	C 	0.60332 0.10780 0.42081 -0.15000
C 	C 	0.60790 0.21149 0.42681 0.13200
C 	C 	0.65508 0.25970 0.40085 -0.18400
C 	C 	0.60970 0.34978 0.39770 0.14200
N 	N 	0.52330 0.34267 0.38949 -0.09600
N 	N 	0.48195 0.42245 0.38815 -0.07200
C 	C 	0.52470 0.51297 0.39490 0.02000
N 	N 	0.61168 0.52023 0.40263 -0.08500
N 	N 	0.65331 0.44008 0.40383 -0.09600
C 	C 	0.57509 0.27011 0.45844 -0.15500
H 	H 	0.55648 0.35417 0.52655 0.09300
H 	H 	0.44915 0.34426 0.50971 0.09700
H 	H 	0.49786 0.09100 0.49619 0.07200
H 	H 	0.53147 0.92920 0.46231 0.07800
H 	H 	0.64165 -0.05675 0.44711 0.08700
H 	H 	0.63495 0.06337 0.39755 0.10300
H 	H 	0.72404 0.28139 0.40890 0.08000
H 	H 	0.65957 0.20552 0.37509 0.07600
H 	H 	0.58194 0.35006 0.46388 0.08000
C 	C 	0.62581 0.91888 0.28230 -0.27400
C 	C 	0.66004 0.86675 0.24654 0.16300
C 	C 	0.74298 0.89553 0.23397 -0.17500
C 	C 	0.77551 0.84788 0.20076 0.15500
C 	C 	0.86340 0.88462 0.18792 -0.28200
C 	C 	0.72541 0.76775 0.18062 -0.15200
C 	C 	0.64224 0.73923 0.19262 0.12300
C 	C 	0.58940 0.65395 0.17046 -0.18200
C 	C 	0.50583 0.68565 0.15925 0.13700
N 	N 	0.48925 0.78284 0.16413 -0.09700
N 	N 	0.41297 0.80922 0.15516 -0.07000
C 	C 	0.35105 0.73924 0.14048 0.02700
N 	N 	0.36826 0.64230 0.13510 -0.06800
N 	N 	0.44431 0.61596 0.14410 -0.10200
C 	C 	0.60902 0.79004 0.22536 -0.14900
H 	H 	0.67519 0.97657 0.29526 0.09600
H 	H 	0.56416 0.95662 0.28074 0.08800
H 	H 	0.78224 0.95559 0.24999 0.07200
H 	H 	0.91719 0.86887 0.20291 0.05700
H 	H 	0.86272 0.96612 0.19227 0.07300
H 	H 	0.75028 0.72701 0.15547 0.04100
H 	H 	0.62899 0.61590 0.14703 0.05400
H 	H 	0.57256 0.59874 0.18517 0.06600
H 	H 	0.54388 0.76912 0.23449 0.07300
C 	C 	0.92427 0.28720 1.01950 -0.23200
C 	C 	1.00993 0.33627 0.03414 0.17100
C 	C 	0.03005 0.43548 0.03527 -0.18600
C 	C 	0.10833 0.48264 0.04915 0.11400
C 	C 	0.13057 0.58721 0.04815 -0.20300
C 	C 	1.16444 0.43247 0.06447 -0.12100
C 	C 	1.14342 0.33462 0.06538 0.13100
C 	C 	1.20337 0.28653 0.08449 -0.18600
C 	C 	1.16397 0.19192 0.09062 0.15000
N 	N 	1.20291 0.10452 0.07622 -0.09000
N 	N 	1.16154 0.01935 0.07778 -0.06100
C 	C 	0.07973 0.01909 0.09351 0.01700
N 	N 	0.04251 0.10656 0.10910 -0.09500
N 	N 	1.08443 0.19165 0.10807 -0.08900
C 	C 	1.06717 0.28576 0.04882 -0.15600
H 	H 	0.91706 0.20948 1.02114 0.10100
H 	H 	-0.13191 0.32770 1.03506 0.04300
H 	H 	-0.01512 0.47651 0.02524 0.05900
H 	H 	0.10245 0.60309 0.02567 0.07800
H 	H 	0.20383 0.59802 0.04493 0.07900
H 	H 	1.22381 0.47035 0.07625 0.08900
H 	H 	1.26782 0.27253 0.06962 0.08500
H 	H 	1.21683 0.33885 0.10993 0.08400
H 	H 	1.05076 0.20912 0.04771 0.09200
C 	C 	0.57335 0.19606 0.74284 -0.31200
C 	C 	0.60650 0.22973 0.77844 0.17600
C 	C 	0.67698 0.17983 0.78610 -0.19200
C 	C 	0.69234 0.18446 0.82011 0.16500
C 	C 	0.76026 0.12137 0.82810 -0.29400
C 	C 	0.63837 0.24179 0.84668 -0.17400
C 	C 	0.57154 0.29630 0.83960 0.13200
C 	C 	0.50576 0.34213 0.86797 -0.18900
C 	C 	0.42288 0.27714 0.86609 0.14600
N 	N 	0.40673 0.20140 0.83770 -0.09200
N 	N 	0.32842 0.15263 0.83420 -0.06600
C 	C 	0.26414 0.17593 0.85946 0.03800
N 	N 	0.28198 0.24759 0.88867 -0.06500
N 	N 	0.35995 0.29740 0.89198 -0.10000
C 	C 	0.55578 0.29062 0.80537 -0.17500
H 	H 	0.51567 0.14348 0.74305 0.11100
H 	H 	0.62488 0.15424 0.72467 0.11500
H 	H 	0.71501 0.13040 0.76558 0.07500
H 	H 	0.80879 0.09526 0.80615 0.04000
H 	H 	0.72581 0.05579 0.83419 0.09100
H 	H 	0.64594 0.24106 0.87299 0.05800
H 	H 	0.53417 0.35247 0.89344 0.05700
H 	H 	0.48944 0.41639 0.86600 0.06300
H 	H 	0.49834 0.32542 0.80003 0.09000
C 	C 	0.89857 0.68774 -0.02828 -0.23400
C 	C 	0.97905 0.66125 0.94778 0.16200
C 	C 	0.01942 0.57206 0.94478 -0.20200
C 	C 	0.07879 0.53399 0.91701 0.09600
C 	C 	0.11713 0.43575 0.91228 -0.20800
C 	C 	1.09909 0.58560 0.89242 -0.12900
C 	C 	1.06208 0.67641 0.89546 0.12500
C 	C 	1.08598 0.72537 0.86700 -0.18600
C 	C 	1.05320 0.82724 0.87413 0.14300
N 	N 	0.96507 0.84208 0.87437 -0.10900
N 	N 	0.93549 -0.06665 0.88391 -0.07800
C 	C 	0.99320 1.01243 0.89302 0.02800
N 	N 	1.08132 0.99770 0.89191 -0.06700
N 	N 	1.11087 0.90650 0.88280 -0.09500
C 	C 	1.00279 0.71499 0.92378 -0.16200
H 	H 	0.86375 0.74837 -0.03411 0.08800
H 	H 	-0.14913 0.62275 -0.03345 0.01700
H 	H 	0.00117 0.53007 0.96306 0.05400
H 	H 	0.11232 0.41477 0.93688 0.07200
H 	H 	0.18879 0.43892 0.90446 0.08700
H 	H 	1.14393 0.55454 0.87067 0.08100
H 	H 	1.15961 0.72953 0.86353 0.07900
H 	H 	1.05967 0.67879 0.84248 0.07100
H 	H 	0.97187 0.78447 0.92686 0.08800
C 	C 	0.09691 0.62864 0.21024 -0.26800
C 	C 	0.14428 0.67893 0.24270 0.15500
C 	C 	0.22622 0.64605 0.24933 -0.16800
C 	C 	0.26740 0.68940 0.28050 0.14100
C 	C 	0.35600 0.65263 0.28707 -0.26900
C 	C 	0.22514 0.76708 0.30495 -0.14300
C 	C 	0.14268 0.79843 0.29909 0.11300
C 	C 	0.09796 0.88039 0.32597 -0.19900
C 	C 	1.00964 0.84830 0.33956 0.15700
N 	N 	0.98152 0.75152 0.33221 -0.09400
N 	N 	0.89937 0.72604 0.34152 -0.06400
C 	C 	0.84271 0.79622 0.35884 0.02000
N 	N 	0.87188 0.89250 0.36725 -0.06300
N 	N 	0.95406 0.91797 0.35803 -0.09800
C 	C 	0.10306 0.75489 0.26780 -0.15000
H 	H 	0.13024 0.55982 0.19614 0.09500
H 	H 	0.02805 0.60645 0.21727 0.08100
H 	H 	0.25782 0.58640 0.23034 0.07100
H 	H 	0.41006 0.68577 0.27340 0.06400
H 	H 	0.35702 0.57085 0.27690 0.06900
H 	H 	0.25577 0.80400 0.32882 0.02100
H 	H 	0.14076 0.91164 0.34809 0.04500
H 	H 	0.08738 0.94099 0.31403 0.06500
H 	H 	0.03926 0.77943 0.26323 0.07200
C 	C 	0.29470 0.87335 0.49943 -0.30400
C 	C 	0.31533 0.82132 0.52555 0.17700
C 	C 	0.38198 0.86383 0.54790 -0.17500
C 	C 	0.37380 0.85972 0.58200 0.16100
C 	C 	0.42708 0.93348 0.60843 -0.27200
C 	C 	0.30937 0.79457 0.59140 -0.16900
C 	C 	0.25168 0.73658 0.56692 0.13600
C 	C 	0.18152 0.66712 0.57682 -0.19000
C 	C 	0.22088 0.60052 0.59476 0.14300
N 	N 	0.28529 0.53818 0.57882 -0.09800
N 	N 	0.32641 0.48665 0.59605 -0.08700
C 	C 	0.30415 0.49560 0.62967 -0.02700
N 	N 	0.23828 0.55588 0.64532 -0.07100
N 	N 	0.19718 0.60746 0.62810 -0.10500
C 	C 	0.25358 0.75244 0.53412 -0.17200
H 	H 	0.22167 0.87747 0.49862 0.08100
H 	H 	0.32108 0.95147 0.50705 0.09300
H 	H 	0.43169 0.91379 0.54045 0.08600
H 	H 	0.49885 0.92007 0.60254 0.09300
H 	H 	0.41054 0.92453 0.63452 0.08900
H 	H 	0.30307 0.79006 0.61770 0.07300
H 	H 	0.13060 0.71223 0.59416 0.06700
H 	H 	0.14759 0.62102 0.55392 0.06900
H 	H 	0.20310 0.71736 0.51630 0.07500
C 	C 	0.01970 0.35542 0.76261 -0.23300
C 	C 	0.04281 0.29274 0.72662 0.12500
C 	C 	0.12952 0.25882 0.71831 -0.14100
C 	C 	0.15416 0.20292 0.68495 0.10500
C 	C 	0.24559 0.15761 0.67699 -0.22900
C 	C 	0.08908 0.17966 0.66006 -0.14000
C 	C 	0.00091 0.21123 0.66779 0.07300
C 	C 	0.93530 0.17864 0.63900 -0.11700
C 	C 	0.83923 0.20995 0.64450 0.13000
N 	N 	0.77526 0.15604 0.65756 -0.09100
N 	N 	0.68912 0.16525 0.65380 -0.06800
C 	C 	0.66245 0.22817 0.63629 0.07200
N 	N 	0.72621 0.28202 0.62343 -0.08500
N 	N 	0.81201 0.27311 0.62731 -0.09100
C 	C 	-0.02116 0.26940 0.70117 -0.13200
H 	H 	0.06925 0.41831 0.76966 0.08100
H 	H 	-0.04611 0.38771 0.76356 0.06700
H 	H 	0.17766 0.27554 0.73806 0.08000
H 	H 	0.24983 0.10926 0.65024 0.03500
H 	H 	0.25279 0.10913 0.69414 0.08400
H 	H 	0.10653 0.13468 0.63443 0.03400
H 	H 	-0.03500 0.20447 0.61699 0.03800
H 	H 	0.93363 0.09636 0.63018 0.06700
H 	H 	-0.08782 0.29545 0.70748 0.05600
Nd	Nd	0.36459 0.75624 0.39584 2.18800
O 	O 	0.51974 0.78031 0.40255 -0.45300
Nd	Nd	0.56945 0.72767 0.34550 2.31000
O 	O 	0.59155 0.88804 0.38031 -0.33300
C 	C 	0.47443 0.60052 0.39565 0.21400
C 	C 	0.37271 0.67956 0.32478 0.35600
C 	C 	0.33035 0.82504 0.46443 0.42700
O 	O 	0.39415 0.59777 0.39675 -0.45200
O 	O 	0.50822 0.69668 0.39713 -0.44100
O 	O 	0.30346 0.74093 0.44726 -0.53600
O 	O 	0.38206 0.86943 0.44754 -0.56200
C 	C 	0.74740 0.77168 0.36044 0.33700
O 	O 	0.61163 0.75660 0.29404 -0.54800
C 	C 	0.60695 0.84999 0.30454 0.39300
O 	O 	0.58495 0.88107 0.33624 -0.44100
O 	O 	0.68961 0.83510 0.36663 -0.38300
O 	O 	0.71376 0.68609 0.35053 -0.51000
C 	C 	0.55418 0.87906 0.40712 0.22000
O 	O 	0.42266 0.76141 0.34151 -0.75100
O 	O 	0.33077 0.64207 0.34478 -0.55000
Nd	Nd	0.91463 0.75649 0.07996 2.18500
O 	O 	0.06967 0.75413 0.08342 -0.46400
Nd	Nd	0.08382 0.80931 0.14245 2.24800
O 	O 	0.11664 0.65107 0.10921 -0.32200
C 	C 	0.02636 0.92709 0.08921 0.16400
C 	C 	0.88321 0.83912 0.15042 0.36300
C 	C 	-0.08391 0.71687 0.00929 0.36900
O 	O 	0.94803 0.92136 0.08394 -0.40900
O 	O 	0.05800 0.83458 0.08814 -0.42400
O 	O 	-0.11727 0.79090 0.02982 -0.53300
O 	O 	0.95559 0.66611 0.02454 -0.51300
C 	C 	0.26118 0.76552 0.13664 0.30200
O 	O 	0.08874 0.78689 0.19631 -0.54300
C 	C 	0.09251 0.69342 0.18642 0.38400
O 	O 	0.09258 0.65897 0.15392 -0.42200
O 	O 	0.19910 0.70100 0.12970 -0.34900
O 	O 	0.23448 0.85228 0.14333 -0.50100
C 	C 	0.09947 0.65909 0.08084 0.20200
O 	O 	0.93558 0.75993 0.13741 -0.73600
O 	O 	0.85255 0.86652 0.12786 -0.53900
Nd	Nd	0.88715 0.29646 0.91728 2.12500
O 	O 	0.03202 0.27067 0.89304 -0.43600
Nd	Nd	0.00595 0.19229 0.83626 2.24900
O 	O 	0.06717 0.35361 0.85527 -0.35500
C 	C 	0.96099 0.11196 0.90286 0.20400
C 	C 	0.80801 0.18062 0.85843 0.37600
C 	C 	-0.08343 0.28801 0.98290 0.35200
O 	O 	0.89134 0.13395 0.91913 -0.34600
O 	O 	0.00573 0.19371 0.89476 -0.39400
O 	O 	-0.11971 0.21848 0.96089 -0.45300
O 	O 	0.94080 0.35958 0.97109 -0.51900
C 	C 	0.17203 0.15482 0.85092 0.29800
O 	O 	0.98299 0.20963 0.78321 -0.50500
C 	C 	0.01689 0.29720 0.78882 0.31100
O 	O 	0.04595 0.33227 0.81907 -0.40200
O 	O 	0.10953 0.17474 0.87336 -0.37400
O 	O 	0.14722 0.13983 0.82076 -0.50000
C 	C 	0.06920 0.35738 0.88593 0.19300
O 	O 	0.86893 0.25526 0.85797 -0.74200
O 	O 	0.79135 0.17402 0.88717 -0.52300
Nd	Nd	0.46310 0.37600 0.69072 2.19400
O 	O 	0.49002 0.22560 0.64858 -0.41900
Nd	Nd	0.39650 0.23136 0.60608 2.34700
O 	O 	0.54958 0.23160 0.59866 -0.33600
C 	C 	0.32435 0.23154 0.68167 0.29100
C 	C 	0.35716 0.45003 0.64980 0.31500
C 	C 	0.54401 0.27562 0.72868 0.45100
O 	O 	0.32812 0.30686 0.70479 -0.47900
O 	O 	0.40433 0.21968 0.66179 -0.49200
O 	O 	0.57494 0.28657 0.70065 -0.53600
O 	O 	0.47750 0.32663 0.73986 -0.53700
C 	C 	0.41134 0.03863 0.60845 0.36700
O 	O 	0.38224 0.26480 0.55478 -0.55200
C 	C 	0.46426 0.26197 0.54582 0.35500
O 	O 	0.51270 0.23910 0.56716 -0.40200
O 	O 	0.42994 0.11256 0.63317 -0.36800
O 	O 	0.38262 0.06356 0.58348 -0.54300
C 	C 	0.56818 0.23020 0.62751 0.16600
O 	O 	0.42954 0.39546 0.63693 -0.72100
O 	O 	0.34620 0.46239 0.68046 -0.53300
