data_crystal

_cell_length_a 12.73310
_cell_length_b 27.79070
_cell_length_c 32.02600
_cell_angle_alpha 113.33000
_cell_angle_beta  91.46020
_cell_angle_gamma 93.75850

_symmetry_space_group_name_	'P 1'
_symmetry_space_group_name_H-M	'P 1'

loop_
_symmetry_equiv_pos_as_xyz
  x,y,z

loop_
_atom_site_label
_atom_site_type_symbol
_atom_site_fract_x
_atom_site_fract_y
_atom_site_fract_z
_atom_site_charge
Mn	Mn	1.10049 0.34788 0.20724 1.20300
Mn	Mn	0.33047 0.34215 0.15194 1.27400
Mn	Mn	0.54891 0.12774 0.88360 1.22600
Mn	Mn	0.29814 0.16236 0.91330 1.28000
Mn	Mn	0.30090 0.25879 0.03057 1.27000
C 	C 	0.25363 0.29979 0.25583 0.10300
N 	N 	0.22783 0.31730 0.22329 -0.25600
N 	N 	0.31579 0.31732 0.20239 -0.20300
N 	N 	0.39336 0.30217 0.22108 -0.06100
N 	N 	0.35670 0.29044 0.25427 -0.09100
N 	N 	0.48797 0.26529 0.13972 -0.10600
N 	N 	0.41791 0.28316 0.11955 -0.21400
N 	N 	0.39454 0.24888 0.07769 -0.20000
N 	N 	0.44954 0.20749 0.06861 -0.09700
C 	C 	0.50751 0.21857 0.10745 0.11100
C 	C 	0.36864 0.41855 0.06763 0.10900
N 	N 	0.34628 0.36781 0.10156 -0.20200
N 	N 	0.36271 0.41792 0.10929 -0.09900
N 	N 	0.17937 0.27402 0.07440 -0.23000
N 	N 	0.19889 0.29727 0.11920 -0.19600
N 	N 	1.11093 0.30000 0.14059 -0.21100
N 	N 	1.03035 0.27972 0.11068 -0.11600
N 	N 	0.34307 0.33831 0.05733 -0.19600
N 	N 	0.35602 0.36907 0.03455 -0.09900
C 	C 	1.07281 0.26285 0.06939 0.11700
N 	N 	0.46219 0.16256 0.85205 -0.26300
N 	N 	0.36628 0.17690 0.86256 -0.19400
N 	N 	0.34073 0.20917 0.84353 -0.05400
N 	N 	0.42141 0.21670 0.82049 -0.09200
N 	N 	0.17420 0.24554 0.90600 -0.10800
N 	N 	0.22025 0.22901 0.93461 -0.20100
N 	N 	0.21528 0.26372 0.97726 -0.19000
N 	N 	0.16805 0.30491 0.97720 -0.09800
N 	N 	0.22364 0.15569 0.03351 -0.10300
N 	N 	0.25285 0.18038 0.00733 -0.19400
N 	N 	0.24419 0.14702 0.96430 -0.19500
N 	N 	0.21223 0.09943 0.96079 -0.08900
N 	N 	0.42679 0.24351 0.99043 -0.23900
N 	N 	0.42500 0.20088 0.95274 -0.19900
N 	N 	0.52124 0.18918 0.94101 -0.20400
N 	N 	0.59066 0.22508 0.96963 -0.11300
Cl	Cl	0.21892 0.40348 0.19047 -0.78500
Cl	Cl	0.39093 0.09017 0.89122 -0.75800
C 	C 	0.49687 0.18789 0.82692 0.11600
C 	C 	0.14211 0.29263 0.93251 0.14200
C 	C 	0.19901 0.10530 0.00400 0.14500
C 	C 	0.53116 0.25908 1.00056 0.15300
Mn	Mn	0.53479 0.92171 0.18162 1.20800
Mn	Mn	0.76781 0.88347 0.13170 1.27100
Mn	Mn	-0.08836 0.64094 0.84962 1.21200
Mn	Mn	0.68099 0.67692 0.90313 1.27900
Mn	Mn	0.72496 0.78002 0.01733 1.27100
C 	C 	0.61446 0.85615 0.22877 0.11300
N 	N 	0.63805 0.88696 0.20659 -0.26400
N 	N 	0.73101 0.87445 0.18994 -0.19300
N 	N 	0.76654 0.83916 0.20365 -0.05200
N 	N 	0.69527 0.82686 0.22808 -0.08400
N 	N 	0.89527 0.79973 0.13531 -0.10500
N 	N 	0.84328 0.81672 0.10829 -0.21000
N 	N 	0.82459 0.77827 0.06764 -0.19700
N 	N 	0.86247 0.73500 0.06762 -0.09600
C 	C 	0.90750 0.74880 0.10988 0.10800
C 	C 	0.81366 0.92808 0.02666 0.11400
N 	N 	0.79363 0.89330 0.07375 -0.20100
N 	N 	0.81713 0.93931 0.07168 -0.09400
N 	N 	0.60882 0.80508 0.06266 -0.23000
N 	N 	0.62897 0.84289 0.10368 -0.19600
N 	N 	0.54048 0.85782 0.12347 -0.21100
N 	N 	0.45901 0.83035 0.09682 -0.12100
N 	N 	0.77599 0.85613 0.03235 -0.19900
N 	N 	0.78944 0.87643 0.00167 -0.10100
C 	C 	0.50089 0.79734 0.05870 0.12000
N 	N 	0.79995 0.67235 0.82471 -0.25800
N 	N 	0.71239 0.68716 0.84552 -0.19400
N 	N 	0.64703 0.69994 0.81957 -0.05300
N 	N 	0.69162 0.69316 0.78086 -0.08000
N 	N 	0.54703 0.76031 0.90208 -0.10000
N 	N 	0.60794 0.74409 0.92714 -0.20200
N 	N 	0.62746 0.78184 0.96799 -0.19700
N 	N 	0.58067 0.82394 0.97112 -0.09500
N 	N 	0.66722 0.68241 0.03262 -0.10000
N 	N 	0.67372 0.70362 0.00233 -0.19700
N 	N 	0.65769 0.66645 0.96081 -0.18900
N 	N 	0.64236 0.61986 0.96266 -0.08500
N 	N 	0.83850 0.75513 0.97092 -0.23500
N 	N 	0.81978 0.71551 0.93099 -0.19900
N 	N 	-0.09258 0.70371 0.90967 -0.21000
N 	N 	-0.01343 0.73708 0.93372 -0.12200
Cl	Cl	0.67657 0.95605 0.15803 -0.78200
Cl	Cl	0.77339 0.60453 0.87467 -0.76200
C 	C 	0.78709 0.67606 0.78442 0.10100
C 	C 	0.53046 0.81002 0.93010 0.11700
C 	C 	0.64705 0.63040 0.00756 0.13600
C 	C 	-0.05704 0.76945 0.97195 0.14200
Mn	Mn	1.09693 0.57029 0.34072 1.20400
Mn	Mn	0.30234 0.65737 0.40429 1.27300
Mn	Mn	0.34560 0.94502 0.67499 1.21200
Mn	Mn	0.13628 0.85938 0.61197 1.27400
Mn	Mn	0.21872 0.75734 0.50879 1.27300
C 	C 	0.17227 0.62369 0.27736 0.11900
N 	N 	0.18020 0.61735 0.31675 -0.26300
N 	N 	0.25998 0.65011 0.34062 -0.19600
N 	N 	0.30210 0.67551 0.31707 -0.05500
N 	N 	0.24857 0.65981 0.27712 -0.09100
N 	N 	0.39497 0.75701 0.40252 -0.10500
N 	N 	0.33658 0.73498 0.42463 -0.21100
N 	N 	0.30371 0.77125 0.46179 -0.19900
N 	N 	0.34052 0.81855 0.46566 -0.09800
C 	C 	0.39597 0.80886 0.42833 0.11300
C 	C 	0.39854 0.64859 0.52361 0.11300
N 	N 	0.34124 0.66325 0.46777 -0.19800
N 	N 	0.39812 0.63066 0.47770 -0.09600
N 	N 	0.11745 0.70407 0.45831 -0.23000
N 	N 	0.15199 0.66881 0.42079 -0.19700
N 	N 	1.07355 0.63560 0.39615 -0.21500
N 	N 	0.98423 0.64774 0.41623 -0.12200
N 	N 	0.30891 0.69900 0.50544 -0.19900
N 	N 	0.34287 0.69101 0.54123 -0.09800
C 	C 	1.01128 0.69096 0.45470 0.11400
N 	N 	0.25782 0.89973 0.69922 -0.26200
N 	N 	0.17620 0.86813 0.67587 -0.19800
N 	N 	0.12738 0.84673 0.70107 -0.05900
N 	N 	0.17898 0.86343 0.74139 -0.09700
N 	N 	0.05886 0.76187 0.62070 -0.11000
N 	N 	0.09807 0.78185 0.59266 -0.20800
N 	N 	0.13500 0.74448 0.55723 -0.19500
N 	N 	0.12329 0.69909 0.56162 -0.10200
N 	N 	0.10883 0.82946 0.47639 -0.09600
N 	N 	0.12887 0.81628 0.51125 -0.19500
N 	N 	0.09942 0.85290 0.54902 -0.20200
N 	N 	0.05943 0.89071 0.54055 -0.09600
N 	N 	0.32100 0.80972 0.55918 -0.23500
N 	N 	0.28696 0.84665 0.59569 -0.19700
N 	N 	0.36675 0.87868 0.62041 -0.21200
N 	N 	0.45661 0.86326 0.60196 -0.12600
Cl	Cl	0.25115 0.57024 0.37941 -0.77400
Cl	Cl	0.19258 0.94606 0.63583 -0.75900
C 	C 	0.26047 0.89617 0.73969 0.11700
C 	C 	0.07538 0.71058 0.60116 0.14800
C 	C 	0.06509 0.87582 0.49531 0.11200
C 	C 	0.42839 0.81970 0.56380 0.14400
Mn	Mn	0.48200 0.06321 0.34745 1.20400
Mn	Mn	0.72015 0.12820 0.39946 1.27200
Mn	Mn	-0.10779 0.38229 0.68700 1.21000
Mn	Mn	0.65930 0.33747 0.62043 1.27500
Mn	Mn	0.69132 0.23364 0.50985 1.27400
C 	C 	0.55886 0.11665 0.28439 0.10600
N 	N 	0.57462 0.10422 0.32039 -0.26600
N 	N 	0.66708 0.12811 0.33941 -0.19700
N 	N 	0.70813 0.15431 0.31638 -0.05800
N 	N 	0.64200 0.14787 0.28148 -0.09100
N 	N 	0.83788 0.22167 0.39314 -0.11000
N 	N 	0.78816 0.20232 0.41966 -0.20800
N 	N 	0.77947 0.23995 0.46022 -0.19900
N 	N 	0.82250 0.28506 0.46147 -0.10300
C 	C 	0.85788 0.27340 0.41961 0.14300
C 	C 	0.80743 0.10134 0.51127 0.14700
N 	N 	0.76392 0.12683 0.45999 -0.19900
N 	N 	0.80013 0.08615 0.46559 -0.09700
N 	N 	0.56794 0.19549 0.46281 -0.22900
N 	N 	0.58268 0.15503 0.42460 -0.19900
N 	N 	0.49207 0.12868 0.40572 -0.21100
N 	N 	0.41373 0.15044 0.43061 -0.11700
N 	N 	0.74712 0.16395 0.49987 -0.20000
N 	N 	0.77421 0.14957 0.53307 -0.10700
C 	C 	0.46074 0.19222 0.46618 0.11400
N 	N 	0.77155 0.34516 0.70569 -0.25700
N 	N 	0.68300 0.32869 0.67987 -0.19700
N 	N 	0.61071 0.31140 0.70056 -0.05900
N 	N 	0.65079 0.31629 0.74062 -0.09000
N 	N 	0.50756 0.25295 0.61730 -0.10400
N 	N 	0.57326 0.26851 0.59337 -0.21100
N 	N 	0.60003 0.22773 0.55825 -0.19900
N 	N 	0.55451 0.18373 0.55871 -0.09600
N 	N 	0.62887 0.32163 0.48743 -0.10500
N 	N 	0.64071 0.30490 0.52028 -0.19700
N 	N 	0.63840 0.34449 0.56038 -0.19600
N 	N 	0.62290 0.38829 0.55481 -0.10200
N 	N 	0.81218 0.27036 0.55823 -0.23600
N 	N 	0.79397 0.30388 0.59965 -0.19800
N 	N 	-0.11696 0.32179 0.62467 -0.20800
N 	N 	-0.03677 0.30094 0.60053 -0.12500
Cl	Cl	0.63561 0.04634 0.37542 -0.77600
Cl	Cl	0.76529 0.41303 0.65397 -0.75800
C 	C 	0.75092 0.33743 0.74405 0.09400
C 	C 	0.49569 0.20035 0.59554 0.11100
C 	C 	0.61569 0.37308 0.50911 0.14500
C 	C 	-0.08101 0.26815 0.55932 0.14600
C 	C 	0.57642 0.30985 0.03768 -0.16800
C 	C 	0.69568 0.31054 0.04665 -0.00600
C 	C 	0.76149 0.31473 0.00794 -0.12600
C 	C 	0.85064 0.27935 0.99871 0.05000
C 	C 	0.92874 0.28911 0.03306 -0.05000
C 	C 	1.00536 0.25372 0.02848 -0.03500
C 	C 	1.00563 0.20869 0.98802 0.00200
C 	C 	0.93249 0.20009 0.95157 -0.06200
C 	C 	0.93836 0.15435 0.90782 0.29200
O 	O 	0.87073 0.14452 0.87723 -0.29300
O 	O 	1.02261 0.12282 0.90114 -0.34100
C 	C 	0.85368 0.23522 0.95755 -0.02900
H 	H 	0.53834 0.31566 0.06973 0.05100
H 	H 	0.55990 0.34313 1.02827 0.07200
H 	H 	0.71093 0.27470 0.05271 0.03500
H 	H 	0.72066 0.34478 0.07892 0.01600
H 	H 	0.79474 0.35605 0.01805 0.05600
H 	H 	0.71189 0.30505 0.97621 0.06400
H 	H 	0.92655 0.32347 0.06469 0.03800
H 	H 	1.06002 0.17974 0.98525 0.04100
H 	H 	1.01926 0.09338 0.86966 0.14400
H 	H 	0.79338 0.22771 0.93076 0.03100
C 	C 	-0.00017 0.81926 1.00619 -0.14200
C 	C 	0.11622 0.81343 1.01441 -0.02000
C 	C 	0.18607 0.81482 0.97606 -0.10400
C 	C 	0.27926 0.78397 0.97472 0.02500
C 	C 	0.35770 0.80497 1.00965 -0.03300
C 	C 	0.43244 0.77353 0.01647 -0.03800
C 	C 	0.42833 0.72026 -0.01298 -0.01100
C 	C 	0.35554 0.69966 -0.05096 -0.07700
C 	C 	0.35709 0.64475 -0.08438 0.28200
O 	O 	0.28569 0.62496 -0.11365 -0.28600
O 	O 	0.44181 0.61585 -0.08332 -0.34100
C 	C 	0.27984 0.73169 0.94365 -0.01700
H 	H 	0.96284 0.83047 0.03927 0.04000
H 	H 	0.99292 0.85149 0.99436 0.06200
H 	H 	0.12208 0.77655 1.01989 0.03800
H 	H 	0.14625 0.84633 1.04667 0.02200
H 	H 	0.21342 0.85623 0.98292 0.04800
H 	H 	0.14273 0.79889 0.94232 0.05000
H 	H 	0.35652 0.84564 1.03340 0.03600
H 	H 	0.47761 0.69447 -0.00545 0.04500
H 	H 	0.43678 0.57975 -0.10918 0.15000
H 	H 	0.21904 0.71562 0.91638 0.02800
C 	C 	0.50916 0.78808 0.53246 -0.15800
C 	C 	0.62030 0.81786 0.54372 -0.01600
C 	C 	0.70023 0.79462 0.50665 -0.11300
C 	C 	0.77609 0.75830 0.51401 0.03200
C 	C 	0.86924 0.74978 0.48991 -0.05600
C 	C 	0.93441 0.71096 0.49001 -0.03700
C 	C 	0.90474 0.67989 0.51380 -0.00500
C 	C 	0.81525 0.68904 0.53960 -0.05900
C 	C 	0.78553 0.65502 0.56388 0.27500
O 	O 	0.71731 0.66692 0.59146 -0.24100
O 	O 	0.83568 0.60907 0.55521 -0.31600
C 	C 	0.75107 0.72826 0.53950 -0.03800
H 	H 	0.48587 0.77977 0.49682 0.06100
H 	H 	0.51250 0.75000 0.53563 0.06800
H 	H 	0.65219 0.82154 0.57753 0.02800
H 	H 	0.61131 0.85863 0.54683 0.03400
H 	H 	0.74892 0.82848 0.50499 0.06000
H 	H 	0.65871 0.77407 0.47255 0.05200
H 	H 	0.88733 0.77106 0.46866 0.04700
H 	H 	0.95015 0.64712 0.51079 0.04700
H 	H 	0.80902 0.58920 0.57390 0.16500
H 	H 	0.67958 0.73345 0.55769 0.05000
C 	C 	-0.01572 0.23693 0.52067 -0.14600
C 	C 	0.05345 0.20046 0.53296 -0.01800
C 	C 	0.15169 0.22752 0.56511 -0.10600
C 	C 	0.23817 0.24671 0.54260 0.03200
C 	C 	0.31715 0.21395 0.52070 -0.04300
C 	C 	0.39602 0.23104 0.49847 -0.03100
C 	C 	0.39197 0.28056 0.49696 -0.01300
C 	C 	0.31597 0.31441 0.51988 -0.06600
C 	C 	0.31159 0.36633 0.51753 0.27600
O 	O 	0.28936 0.40377 0.55102 -0.23900
O 	O 	0.33113 0.37365 0.47767 -0.30200
C 	C 	0.24037 0.29755 0.54332 -0.03200
H 	H 	0.93232 0.21189 0.49076 0.04900
H 	H 	1.03405 0.26423 0.51041 0.07100
H 	H 	0.07927 0.17019 0.50098 0.03000
H 	H 	0.00319 0.17960 0.54928 0.03300
H 	H 	0.18255 0.19833 0.57689 0.05200
H 	H 	0.13074 0.26010 0.59646 0.04800
H 	H 	0.31506 0.17445 0.51968 0.04200
H 	H 	0.44398 0.29146 0.47567 0.04000
H 	H 	0.33924 0.33980 0.45043 0.15000
H 	H 	0.18033 0.32315 0.56049 0.04200
C 	C 	0.65260 0.58952 1.02705 -0.13000
C 	C 	0.61850 0.53316 0.99241 -0.02000
C 	C 	0.49938 0.52329 0.97887 -0.11300
C 	C 	0.43764 0.51876 1.01679 0.04700
C 	C 	0.42267 0.47036 1.02124 -0.05500
C 	C 	0.38091 0.46831 0.06071 -0.01400
C 	C 	0.35653 0.51545 0.09600 -0.01400
C 	C 	0.36826 0.56351 0.09119 -0.04900
C 	C 	0.34963 0.61319 0.12945 0.27500
O 	O 	0.33107 0.65191 0.12234 -0.24700
O 	O 	0.35747 0.61643 0.17402 -0.31200
C 	C 	0.40551 0.56447 0.05081 -0.04500
H 	H 	0.73599 0.59065 1.03876 0.07000
H 	H 	0.60630 0.60025 1.05784 0.07400
H 	H 	0.64112 0.50512 1.00738 0.04200
H 	H 	0.66346 0.52441 0.96128 0.05400
H 	H 	0.48446 0.48628 0.94786 0.05700
H 	H 	0.47182 0.55522 0.96975 0.07000
H 	H 	0.44805 0.43506 0.99508 0.04600
H 	H 	0.32789 0.51480 0.12735 0.05400
H 	H 	0.34825 0.65312 0.19736 0.15800
H 	H 	0.41719 0.60160 0.04720 0.05600
C 	C 	0.60690 0.40867 0.48442 -0.13400
C 	C 	0.54010 0.45506 0.50856 -0.02200
C 	C 	0.60893 0.50672 0.53153 -0.11500
C 	C 	0.54292 0.55196 0.55448 0.05200
C 	C 	0.50738 0.58054 0.53022 -0.05200
C 	C 	0.44484 0.62237 0.55078 -0.00400
C 	C 	0.42235 0.63735 0.59683 -0.01100
C 	C 	0.45740 0.60905 0.62165 -0.04300
C 	C 	0.43313 0.62468 0.67009 0.27700
O 	O 	0.46785 0.60127 0.69193 -0.23900
O 	O 	0.37132 0.66649 0.69110 -0.31200
C 	C 	0.51516 0.56537 0.59967 -0.03600
H 	H 	0.56941 0.38480 0.44994 0.06300
H 	H 	0.68772 0.42203 0.47888 0.06100
H 	H 	0.49128 0.44786 0.53414 0.05500
H 	H 	0.48523 0.45894 0.48271 0.04600
H 	H 	0.65627 0.51402 0.50560 0.05700
H 	H 	0.66576 0.50332 0.55652 0.07000
H 	H 	0.52743 0.56957 0.49506 0.05000
H 	H 	0.37565 0.67036 0.61300 0.05300
H 	H 	0.36030 0.67310 0.72413 0.15200
H 	H 	0.53767 0.54160 0.61760 0.06600
C 	C 	0.16666 0.06107 0.01787 -0.14400
C 	C 	0.15816 0.00639 0.97792 -0.01400
C 	C 	0.06451 -0.00337 0.94344 -0.10800
C 	C 	0.96139 -0.00050 0.96562 0.03700
C 	C 	0.93076 0.96190 0.98275 -0.04800
C 	C 	0.84010 0.96652 0.00710 -0.01900
C 	C 	0.77621 1.00757 0.01254 -0.00700
C 	C 	0.80276 0.04393 -0.00683 -0.05900
C 	C 	0.73119 0.08469 -0.00424 0.28300
O 	O 	0.75777 0.11877 -0.01778 -0.26700
O 	O 	0.63226 0.08386 0.01327 -0.30500
C 	C 	0.89700 0.04026 0.97052 -0.03200
H 	H 	0.22757 0.06096 0.04329 0.06400
H 	H 	0.09113 0.06867 1.03502 0.07400
H 	H 	0.15284 -0.02416 0.99218 0.03000
H 	H 	0.23092 0.00099 0.95912 0.04900
H 	H 	0.06653 0.95683 0.91579 0.04800
H 	H 	0.07183 0.02486 0.92684 0.06300
H 	H 	-0.02017 0.93008 0.97859 0.04100
H 	H 	0.70556 1.01067 0.03131 0.05800
H 	H 	0.59008 0.11341 0.01296 0.16000
H 	H 	0.92078 0.06921 0.95701 0.05600
C 	C 	0.83507 0.06656 0.53478 -0.14700
C 	C 	0.95207 0.07339 0.54995 -0.01600
C 	C 	0.02773 0.05976 0.51062 -0.10800
C 	C 	0.02451 0.00163 0.48057 0.04700
C 	C 	0.04424 0.96559 0.49973 -0.06100
C 	C 	0.04558 0.91172 0.47262 -0.00500
C 	C 	0.03175 0.89398 0.42515 -0.01200
C 	C 	0.01371 -0.07032 0.40495 -0.04500
C 	C 	-0.00195 -0.08925 0.35480 0.28000
O 	O 	-0.02621 -0.05920 0.33751 -0.25300
O 	O 	0.01076 0.85835 0.32708 -0.31000
C 	C 	0.01007 -0.01652 0.43302 -0.03000
H 	H 	0.78767 0.07594 0.56535 0.06200
H 	H 	0.81243 0.02537 0.51215 0.08400
H 	H 	0.96428 0.04894 0.56965 0.03200
H 	H 	0.97181 0.11465 0.57435 0.03200
H 	H 	0.10933 0.07289 0.52590 0.05400
H 	H 	0.01168 0.08272 0.48996 0.05200
H 	H 	0.06117 0.97986 0.53609 0.05900
H 	H 	0.03439 0.85254 0.40415 0.05400
H 	H 	-0.00297 0.85011 0.29351 0.15800
H 	H 	-0.00272 0.01138 0.41789 0.04900
C 	C 	0.46034 0.10032 0.25361 -0.13500
C 	C 	0.46537 0.11906 0.21442 -0.02900
C 	C 	0.53833 0.08757 0.17709 -0.10700
C 	C 	0.58616 0.11915 0.15205 0.04500
C 	C 	0.52382 0.14943 0.13682 -0.05500
C 	C 	0.56990 0.18115 0.11640 -0.01200
C 	C 	0.67692 0.17999 0.10788 -0.01400
C 	C 	0.73952 0.14761 0.12035 -0.04900
C 	C 	0.85151 0.14466 0.10906 0.27400
O 	O 	0.91021 0.12233 0.12483 -0.25000
O 	O 	0.88978 0.16679 0.07958 -0.30400
C 	C 	0.69407 0.11821 0.14343 -0.03700
H 	H 	0.39306 0.11741 0.27448 0.02300
H 	H 	0.44569 0.05684 0.23962 -0.02300
H 	H 	0.48966 0.16194 0.22848 0.04700
H 	H 	0.38436 0.11379 0.19855 0.02600
H 	H 	0.49189 0.05221 0.15204 0.04000
H 	H 	0.60236 0.07332 0.19235 0.06000
H 	H 	0.44008 0.14982 0.14219 0.04900
H 	H 	0.71101 0.20459 0.09175 0.04700
H 	H 	0.96577 0.15984 0.07234 0.15800
H 	H 	0.74210 0.09391 0.15406 0.06200
C 	C 	0.50327 0.84148 0.23603 -0.13600
C 	C 	0.49310 0.83757 0.28189 -0.03300
C 	C 	0.49013 0.89190 0.32074 -0.10000
C 	C 	0.50742 0.88813 0.36592 0.03400
C 	C 	0.43888 0.85510 0.37838 -0.05600
C 	C 	0.45876 0.84888 0.41896 -0.01300
C 	C 	0.54750 0.87546 0.44734 -0.01600
C 	C 	0.61909 0.90677 0.43431 -0.05000
C 	C 	0.72142 0.92720 0.45989 0.27500
O 	O 	0.79273 0.94285 0.44259 -0.23900
O 	O 	0.73825 0.92691 0.50303 -0.32000
C 	C 	0.59659 0.91446 0.39433 -0.04000
H 	H 	0.47759 0.80263 0.20849 0.05600
H 	H 	0.45019 0.87023 0.23293 -0.03100
H 	H 	0.55908 0.81659 0.28832 0.05000
H 	H 	0.41856 0.81356 0.28025 0.03400
H 	H 	0.41248 0.90742 0.31923 0.01300
H 	H 	0.55178 0.91976 0.31666 0.03000
H 	H 	0.37215 0.83279 0.35580 0.04900
H 	H 	0.56456 0.86860 0.47772 0.04400
H 	H 	0.81298 0.94005 0.51622 0.15300
H 	H 	0.65078 0.93918 0.38430 0.07200
C 	C 	0.34437 0.92261 0.77681 -0.14400
C 	C 	0.40759 0.88198 0.78564 -0.02100
C 	C 	0.34500 0.85254 0.81044 -0.10800
C 	C 	0.38824 0.86836 0.85856 0.03800
C 	C 	0.43539 0.83201 0.87177 -0.05900
C 	C 	0.47579 0.84703 0.91661 -0.01100
C 	C 	0.47095 0.89910 0.94804 -0.01500
C 	C 	0.42735 0.93615 0.93479 -0.05400
C 	C 	0.43180 0.99172 0.96687 0.27400
O 	O 	0.42838 1.02624 0.95250 -0.22800
O 	O 	0.43935 1.00489 1.01370 -0.30900
C 	C 	0.38312 0.92014 0.89035 -0.04200
H 	H 	0.39916 0.94813 0.76640 -0.01500
H 	H 	0.30781 0.94813 0.80816 0.05900
H 	H 	0.48189 0.90253 0.80565 0.02600
H 	H 	0.43227 0.85304 0.75261 0.02400
H 	H 	0.34729 0.80945 0.79085 0.05300
H 	H 	0.26054 0.86034 0.81207 0.05800
H 	H 	0.44244 0.79242 0.84698 0.05100
H 	H 	0.50507 0.91143 0.98239 0.05400
H 	H 	0.43722 1.04405 1.03203 0.16500
H 	H 	0.34578 0.94808 0.88028 0.05400
C 	C 	0.60875 0.18850 0.81380 -0.15000
C 	C 	0.61561 0.16035 0.76227 -0.01500
C 	C 	0.59291 0.19728 0.73867 -0.11400
C 	C 	0.51999 0.17191 0.69684 0.04100
C 	C 	0.54897 0.17570 0.65651 -0.05700
C 	C 	0.47223 0.16975 0.62242 -0.01300
C 	C 	0.36777 0.15389 0.62637 -0.01500
C 	C 	0.33927 0.14488 0.66497 -0.06000
C 	C 	0.22836 0.13006 0.67022 0.27900
O 	O 	0.20371 0.12339 0.70426 -0.25600
O 	O 	0.15130 0.12396 0.63639 -0.31700
C 	C 	0.41583 0.15479 0.70040 -0.04700
H 	H 	0.65429 0.16754 0.83046 -0.01200
H 	H 	0.64493 0.22963 0.82680 0.06300
H 	H 	0.56134 0.12384 0.74925 0.00200
H 	H 	0.69665 0.14773 0.75494 0.01900
H 	H 	0.66935 0.21247 0.73062 0.05800
H 	H 	0.55543 0.23247 0.76175 0.07000
H 	H 	0.62824 0.19143 0.65456 0.05000
H 	H 	0.30827 0.15215 0.60099 0.04100
H 	H 	0.07856 0.11440 0.64434 0.15400
H 	H 	0.39313 0.15235 0.73187 0.05100
C 	C 	0.08699 0.59618 0.24050 -0.14200
C 	C 	0.09831 0.60670 0.19689 -0.02300
C 	C 	0.08814 0.66481 0.20401 -0.10300
C 	C 	0.99186 0.67202 0.17897 0.03600
C 	C 	0.99923 0.70195 0.15211 -0.05900
C 	C 	0.90759 0.71116 0.13189 -0.00700
C 	C 	0.80914 0.69094 0.13905 -0.01000
C 	C 	0.80044 0.66271 0.16674 -0.05700
C 	C 	0.69535 0.64719 0.17795 0.28300
O 	O 	0.68543 0.61606 0.19611 -0.25200
O 	O 	0.60741 0.66965 0.16898 -0.30900
C 	C 	0.89207 0.65290 0.18615 -0.03400
H 	H 	0.08870 0.55321 0.23104 0.01600
H 	H 	0.00936 0.60765 0.25465 0.02500
H 	H 	0.03811 0.58014 0.17077 0.03400
H 	H 	0.17479 0.59387 0.18272 0.05000
H 	H 	0.16068 0.67974 0.19286 0.06000
H 	H 	0.08313 0.68996 0.24074 0.06100
H 	H 	0.07494 0.71944 0.14824 0.05000
H 	H 	0.73834 0.69985 0.12491 0.05800
H 	H 	0.54161 0.65949 0.18154 0.17100
H 	H 	0.88579 0.63175 0.20814 0.04300
C 	C 	0.90614 0.31462 0.40479 -0.14000
C 	C 	0.86046 0.31199 0.35867 -0.01900
C 	C 	0.89695 0.26814 0.31538 -0.10500
C 	C 	1.01549 0.26718 0.31376 0.01700
C 	C 	1.07422 0.28769 0.28662 -0.04000
C 	C 	1.18484 0.28712 0.28747 -0.06500
C 	C 	0.23493 0.26911 0.31752 0.00800
C 	C 	0.17777 0.24613 0.34232 -0.07200
C 	C 	0.23468 0.22524 0.37151 0.27800
O 	O 	0.18658 0.20462 0.39340 -0.26100
O 	O 	0.34467 0.22969 0.37413 -0.32500
C 	C 	0.06785 0.24320 0.33866 -0.02500
H 	H 	0.88970 0.35348 0.43103 0.06200
H 	H 	0.99300 0.31477 0.40589 0.06600
H 	H 	0.88251 0.35038 0.35667 0.01200
H 	H 	0.77286 0.30793 0.35825 0.03200
H 	H 	0.86451 0.27401 0.28533 0.03600
H 	H 	0.86154 0.22934 0.31254 0.06300
H 	H 	1.03437 0.30275 0.26462 -0.05500
H 	H 	0.32014 0.27089 0.32028 0.04900
H 	H 	0.37575 0.21577 0.39599 0.15700
H 	H 	0.02263 0.22384 0.35653 0.04900
C 	C 	0.09465 0.32904 0.91381 -0.13400
C 	C 	0.09776 0.30867 0.86104 -0.02900
C 	C 	0.08624 0.35064 0.84082 -0.10300
C 	C 	-0.02677 0.36227 0.83515 0.02500
C 	C 	-0.07763 0.34972 0.79169 -0.06700
C 	C 	-0.18542 0.35746 0.78804 -0.05700
C 	C 	0.75977 0.37861 0.82812 -0.00300
C 	C 	0.81089 0.39368 0.87117 -0.06200
C 	C 	0.75124 0.41372 0.91286 0.27800
O 	O 	0.79776 0.43665 0.95011 -0.25100
O 	O 	0.64164 0.40448 0.90970 -0.31200
C 	C 	0.91798 0.38660 0.87426 -0.03500
H 	H 	0.01179 0.33240 0.92373 0.06500
H 	H 	0.13904 0.36829 0.93003 0.06400
H 	H 	0.03651 0.27544 0.84483 0.04100
H 	H 	0.17549 0.29278 0.85100 0.04500
H 	H 	0.12102 0.33601 0.80694 0.04000
H 	H 	0.13390 0.38766 0.86226 0.04600
H 	H 	-0.03494 0.33236 0.76116 -0.00400
H 	H 	0.67616 0.38315 0.82571 0.04900
H 	H 	0.61064 0.41469 0.94059 0.15100
H 	H 	0.95791 0.39879 0.90743 0.04900
C 	C 	0.05806 0.67331 0.62414 -0.14000
C 	C 	0.11055 0.69712 0.67263 -0.02000
C 	C 	0.11249 0.65747 0.69501 -0.10700
C 	C 	0.00327 0.63794 0.70110 0.02900
C 	C 	-0.04962 0.66524 0.74058 -0.07500
C 	C 	-0.15306 0.64795 0.74476 -0.05800
C 	C 	0.79740 0.60297 0.71013 -0.01000
C 	C 	0.84987 0.57480 0.67105 -0.06400
C 	C 	0.79641 0.52726 0.63518 0.28400
O 	O 	0.84067 0.50278 0.60062 -0.24500
O 	O 	0.69469 0.51029 0.64122 -0.30100
C 	C 	0.95278 0.59268 0.66663 -0.04300
H 	H 	-0.02802 0.66598 0.62608 0.07900
H 	H 	0.09113 0.63542 0.60369 0.07200
H 	H 	0.06819 0.73128 0.69428 0.04300
H 	H 	0.19332 0.71186 0.67139 0.04700
H 	H 	0.15555 0.67679 0.72885 0.04200
H 	H 	0.15751 0.62393 0.67432 0.05600
H 	H 	-0.01140 0.70023 0.76728 0.02000
H 	H 	0.71752 0.59000 0.71403 0.05700
H 	H 	0.66468 0.47786 0.61451 0.17100
H 	H 	0.99338 0.57193 0.63610 0.05100
