data_crystal

_cell_length_a 15.01370
_cell_length_b 30.56280
_cell_length_c 35.40090
_cell_angle_alpha 110.28950
_cell_angle_beta  88.36450
_cell_angle_gamma 89.08810

_symmetry_space_group_name_	'P 1'
_symmetry_space_group_name_H-M	'P 1'

loop_
_symmetry_equiv_pos_as_xyz
  x,y,z

loop_
_atom_site_label
_atom_site_type_symbol
_atom_site_fract_x
_atom_site_fract_y
_atom_site_fract_z
_atom_site_charge
Mn	Mn	1.00034 0.38979 0.13073 1.26700
Mn	Mn	0.22163 0.35503 0.11055 1.28900
Mn	Mn	0.48763 0.12095 0.89442 1.24400
Mn	Mn	0.27004 0.14866 0.92923 1.29300
Mn	Mn	0.25068 0.25091 0.02109 1.28200
C 	C 	0.04267 0.35329 0.19786 0.12800
N 	N 	0.07190 0.36830 0.16855 -0.20500
N 	N 	0.15697 0.35524 0.16183 -0.17400
N 	N 	0.18060 0.33343 0.18639 0.00100
N 	N 	0.11035 0.33187 0.20967 -0.00700
N 	N 	0.34489 0.29295 0.13597 -0.03900
N 	N 	0.29765 0.29776 0.10656 -0.18700
N 	N 	0.31114 0.26092 0.07345 -0.19000
N 	N 	0.36630 0.23054 0.08008 -0.03800
C 	C 	0.38694 0.25088 0.11898 0.15300
C 	C 	0.31852 0.37541 0.00978 0.12700
N 	N 	0.27684 0.35429 0.05802 -0.18400
N 	N 	0.29974 0.39180 0.04984 -0.02900
N 	N 	0.13162 0.27387 0.05272 -0.19600
N 	N 	0.12362 0.31599 0.08007 -0.18700
N 	N 	0.03907 0.32843 0.08871 -0.16200
N 	N 	0.98778 0.29397 0.06912 -0.06600
N 	N 	0.27927 0.31724 0.02473 -0.18900
N 	N 	0.30517 0.32909 -0.00630 -0.04500
C 	C 	0.04547 0.25966 0.04654 0.12000
N 	N 	0.39563 0.13863 0.86164 -0.25200
N 	N 	0.31241 0.14964 0.87469 -0.17700
N 	N 	0.26673 0.16015 0.84746 -0.00900
N 	N 	0.32086 0.15645 0.81603 -0.04100
N 	N 	0.13050 0.20868 0.91185 -0.05500
N 	N 	0.18833 0.20426 0.93781 -0.17200
N 	N 	0.18682 0.24239 0.97006 -0.16900
N 	N 	0.12810 0.27314 0.96647 -0.07000
N 	N 	0.21451 0.17095 0.04888 -0.05000
N 	N 	0.22702 0.18430 0.01730 -0.16600
N 	N 	0.23274 0.14726 0.98398 -0.15700
N 	N 	0.22239 0.10878 0.99238 -0.04200
N 	N 	0.36717 0.22763 0.98771 -0.22500
N 	N 	0.37011 0.19033 0.95448 -0.18400
N 	N 	0.45236 0.18079 0.93966 -0.18500
N 	N 	0.50638 0.21233 0.96154 -0.08200
Cl	Cl	0.13136 0.41707 0.11493 -0.62500
Cl	Cl	0.37164 0.08918 0.91861 -0.63600
C 	C 	0.40130 0.14312 0.82534 0.16200
C 	C 	0.09405 0.25187 0.93013 0.20000
C 	C 	0.20994 0.12414 0.03284 0.22200
C 	C 	0.45308 0.24188 0.99146 0.20900
Mn	Mn	0.58271 0.88687 0.15434 1.25900
Mn	Mn	0.77478 0.82405 0.11207 1.28800
Mn	Mn	-0.07787 0.60582 0.86462 1.29000
Mn	Mn	0.72663 0.66661 0.90587 1.29700
Mn	Mn	0.74917 0.74632 0.00873 1.28300
C 	C 	0.59990 0.81817 0.19907 0.16900
N 	N 	0.63701 0.83963 0.17561 -0.24300
N 	N 	0.71164 0.81600 0.16048 -0.17700
N 	N 	0.72150 0.78118 0.17426 -0.02000
N 	N 	0.65238 0.78173 0.19874 -0.04600
N 	N 	0.85445 0.73419 0.11103 -0.06600
N 	N 	0.81213 0.75637 0.09051 -0.19700
N 	N 	0.79620 0.72747 0.05409 -0.19400
N 	N 	0.82589 0.68501 0.04977 -0.05000
C 	C 	0.86208 0.68964 0.08541 0.10500
C 	C 	0.88946 0.86443 0.02417 0.17200
N 	N 	0.83190 0.83309 0.06308 -0.17900
N 	N 	0.87297 0.87109 0.06352 -0.02700
N 	N 	0.64538 0.78357 0.04619 -0.19800
N 	N 	0.65870 0.81088 0.08368 -0.18700
N 	N 	0.58570 0.83543 0.10001 -0.18500
N 	N 	0.52115 0.82508 0.07428 -0.03900
N 	N 	0.82257 0.80477 0.02563 -0.18600
N 	N 	0.85823 0.82332 0.00022 -0.03200
C 	C 	0.55766 0.79224 0.04086 0.13600
N 	N 	0.86287 0.64960 0.84071 -0.20900
N 	N 	0.78906 0.67330 0.85694 -0.17400
N 	N 	0.76184 0.69805 0.83507 0.01700
N 	N 	0.81851 0.69080 0.80398 0.01500
N 	N 	0.66090 0.75675 0.90262 -0.03100
N 	N 	0.68927 0.73445 0.92602 -0.16600
N 	N 	0.70314 0.76422 0.96248 -0.15400
N 	N 	0.68511 0.80735 0.96388 -0.01100
N 	N 	0.62100 0.67658 0.01715 -0.06800
N 	N 	0.67605 0.68785 -0.00763 -0.17000
N 	N 	0.66715 0.65922 0.95502 -0.15800
N 	N 	0.60500 0.62877 0.95408 -0.03800
N 	N 	0.85252 0.70972 0.97164 -0.22300
N 	N 	0.84123 0.68137 0.93444 -0.18600
N 	N 	0.91629 0.65869 0.91855 -0.19000
N 	N 	-0.01984 0.67151 0.94465 -0.04900
Cl	Cl	0.72482 0.89947 0.13709 -0.63700
Cl	Cl	0.78034 0.59162 0.88266 -0.63300
C 	C 	0.88113 0.66034 0.80758 0.13500
C 	C 	0.65890 0.80199 0.92638 0.18300
C 	C 	0.57809 0.63931 -0.00698 0.20800
C 	C 	0.94040 0.70400 0.97756 0.16600
Mn	Mn	1.14022 0.63547 0.37206 1.24300
Mn	Mn	0.30885 0.70820 0.41672 1.29200
Mn	Mn	0.38455 0.91056 0.67470 1.25600
Mn	Mn	0.22398 0.83117 0.63275 1.29500
Mn	Mn	0.26546 0.76981 0.52469 1.28500
C 	C 	0.12088 0.71382 0.33767 0.19200
N 	N 	0.16965 0.69136 0.35680 -0.24000
N 	N 	0.23591 0.71877 0.37258 -0.16800
N 	N 	0.23136 0.75646 0.36221 -0.00400
N 	N 	0.15996 0.75432 0.34030 -0.03200
N 	N 	0.35794 0.80505 0.42874 -0.05500
N 	N 	0.32106 0.77697 0.44547 -0.19000
N 	N 	0.30101 0.80001 0.48386 -0.18500
N 	N 	0.32173 0.84421 0.49329 -0.04300
C 	C 	0.35714 0.84693 0.45861 0.11600
C 	C 	0.47682 0.67650 0.49278 0.15000
N 	N 	0.37644 0.69633 0.46093 -0.17800
N 	N 	0.44993 0.67006 0.45516 -0.03100
N 	N 	0.17218 0.73048 0.48554 -0.19400
N 	N 	0.19406 0.70750 0.44712 -0.18600
N 	N 	0.12962 0.68000 0.42929 -0.17500
N 	N 	1.06137 0.68453 0.45446 -0.06300
N 	N 	0.35940 0.71807 0.49991 -0.18600
N 	N 	0.42143 0.70664 0.52089 -0.03700
C 	C 	0.08680 0.71626 0.48943 0.14900
N 	N 	0.35613 0.85807 0.69506 -0.23500
N 	N 	0.29673 0.82614 0.67875 -0.16800
N 	N 	0.27016 0.80711 0.70542 -0.00600
N 	N 	0.31222 0.82667 0.73956 -0.03400
N 	N 	0.20645 0.72998 0.62283 -0.06400
N 	N 	0.21982 0.76092 0.60485 -0.16900
N 	N 	0.23088 0.73935 0.56550 -0.16300
N 	N 	0.22454 0.69390 0.55645 -0.06700
N 	N 	0.12236 0.84052 0.52924 -0.02100
N 	N 	0.17368 0.82160 0.54956 -0.16500
N 	N 	0.15489 0.84097 0.58854 -0.16000
N 	N 	0.09135 0.87320 0.59523 -0.02100
N 	N 	0.35782 0.80952 0.56389 -0.22000
N 	N 	0.33730 0.83296 0.60227 -0.18300
N 	N 	0.39955 0.86279 0.61866 -0.18000
N 	N 	0.46490 0.85973 0.59212 -0.07200
Cl	Cl	0.28843 0.63106 0.38396 -0.64300
Cl	Cl	0.23637 0.90961 0.66276 -0.64600
C 	C 	0.36502 0.85879 0.73280 0.18000
C 	C 	0.20799 0.68839 0.59223 0.22400
C 	C 	0.07125 0.87239 0.55814 0.16300
C 	C 	0.43939 0.82596 0.55816 0.20100
Mn	Mn	0.58289 0.11651 0.37243 1.25200
Mn	Mn	0.78981 0.15418 0.40797 1.28500
Mn	Mn	-0.03083 0.36685 0.64446 1.29200
Mn	Mn	0.76220 0.33634 0.60622 1.29600
Mn	Mn	0.77513 0.24637 0.50633 1.28400
C 	C 	0.65118 0.16491 0.31474 0.17000
N 	N 	0.66494 0.14843 0.34461 -0.24800
N 	N 	0.74484 0.16211 0.35746 -0.18000
N 	N 	0.78077 0.18577 0.33616 -0.01500
N 	N 	0.72364 0.18792 0.30887 -0.03900
N 	N 	0.91539 0.22531 0.39952 -0.08700
N 	N 	0.85527 0.21484 0.42288 -0.19400
N 	N 	0.84909 0.24827 0.45854 -0.19000
N 	N 	0.90334 0.28219 0.45957 -0.07000
C 	C 	0.94402 0.26750 0.42273 0.19200
C 	C 	0.88806 0.12189 0.50120 0.18200
N 	N 	0.82794 0.14663 0.45916 -0.18700
N 	N 	0.87487 0.11080 0.46144 -0.06600
N 	N 	0.66883 0.22388 0.46931 -0.19100
N 	N 	0.67687 0.18613 0.43679 -0.18600
N 	N 	0.59806 0.17220 0.42275 -0.18300
N 	N 	0.53517 0.20156 0.44416 -0.04900
N 	N 	0.81463 0.17870 0.49522 -0.18600
N 	N 	0.85189 0.16440 0.52247 -0.08300
C 	C 	0.57911 0.23386 0.47348 0.10600
N 	N 	0.88131 0.33559 0.66995 -0.20900
N 	N 	0.80078 0.32451 0.65636 -0.17200
N 	N 	0.76863 0.29253 0.66993 0.00400
N 	N 	0.82878 0.28196 0.69241 0.00400
N 	N 	0.62607 0.26946 0.61142 -0.03100
N 	N 	0.69110 0.27797 0.58925 -0.17500
N 	N 	0.69804 0.24448 0.55369 -0.17000
N 	N 	0.63764 0.21265 0.55146 -0.04100
N 	N 	0.71682 0.33337 0.49164 -0.04300
N 	N 	0.74068 0.31519 0.51872 -0.15900
N 	N 	0.73036 0.34696 0.55522 -0.16200
N 	N 	0.69526 0.38608 0.55325 -0.04800
N 	N 	0.88115 0.26740 0.54285 -0.22400
N 	N 	0.87325 0.30157 0.57801 -0.18700
N 	N 	0.95185 0.31221 0.59365 -0.18900
N 	N 	0.01417 0.28415 0.57044 -0.04200
Cl	Cl	0.71005 0.08801 0.39076 -0.65300
Cl	Cl	0.84841 0.40004 0.62600 -0.66000
C 	C 	0.89925 0.30865 0.69178 0.10500
C 	C 	0.59403 0.22847 0.58777 0.15100
C 	C 	0.68750 0.37722 0.51339 0.23600
C 	C 	0.97015 0.25607 0.53850 0.14400
C 	C 	0.49010 0.28232 0.02492 -0.13000
C 	C 	0.58979 0.27451 0.02642 -0.04500
C 	C 	0.62143 0.23366 0.03189 0.24700
F 	F 	0.56385 0.20522 0.04183 -0.34800
C 	C 	0.71035 0.21904 0.02289 0.24800
F 	F 	0.73397 0.17637 0.02359 -0.31300
C 	C 	0.77224 0.24722 0.01189 -0.03000
C 	C 	0.86783 0.23031 -0.00159 -0.11800
C 	C 	0.91354 0.20549 0.02447 0.43900
F 	F 	0.87876 0.22211 0.06380 -0.34800
F 	F 	-0.10276 0.15816 0.00825 -0.30800
C 	C 	0.01559 0.21032 0.02512 0.39500
F 	F 	0.04602 0.18278 0.04597 -0.34600
F 	F 	0.05004 0.19298 0.98609 -0.42200
C 	C 	0.74184 0.29048 1.01030 0.23500
F 	F 	0.79875 0.31875 0.99975 -0.37600
C 	C 	0.65131 0.30372 1.01702 0.25700
F 	F 	0.62337 0.34386 1.01226 -0.37200
H 	H 	0.45961 0.28558 0.05452 0.11200
H 	H 	0.47457 0.31503 1.01919 0.13400
H 	H 	0.86731 0.20580 -0.03327 0.12300
H 	H 	0.90846 0.26001 -0.00246 0.10600
C 	C 	-0.01163 0.72608 0.01586 -0.09500
C 	C 	0.08508 0.73083 0.00625 -0.05800
C 	C 	0.14621 0.69399 1.00228 0.26200
F 	F 	0.11980 0.65493 1.00896 -0.32000
C 	C 	0.23466 0.69665 0.99054 0.24500
F 	F 	0.29234 0.66080 0.98722 -0.34500
C 	C 	0.26344 0.73604 0.98241 0.01500
C 	C 	0.36026 0.74045 0.97285 -0.14100
C 	C 	0.41148 0.75996 1.01199 0.49200
F 	F 	0.36490 0.79850 1.03849 -0.36800
F 	F 	0.41820 0.72620 1.02977 -0.39300
C 	C 	0.50548 0.77404 0.00305 0.36900
F 	F 	0.54700 0.73571 -0.02486 -0.44700
F 	F 	0.49822 0.80918 -0.01311 -0.35600
C 	C 	0.20237 0.77277 -0.01394 0.23700
F 	F 	0.22915 0.81160 -0.02095 -0.30800
C 	C 	0.11373 0.77011 -0.00216 0.26000
F 	F 	0.05590 0.80579 0.00095 -0.33700
H 	H 	-0.01623 0.70316 0.03396 0.15000
H 	H 	-0.04194 0.76024 0.03438 0.10000
H 	H 	0.38934 0.70590 0.95364 0.16200
H 	H 	0.36696 0.76384 0.95496 0.19000
C 	C 	0.49778 0.80950 0.52039 -0.11000
C 	C 	0.59520 0.80297 0.52838 -0.04100
C 	C 	0.66266 0.81691 0.50692 0.25200
F 	F 	0.64145 0.83666 0.47927 -0.31900
C 	C 	0.75275 0.81033 0.51331 0.24900
F 	F 	0.81454 0.82570 0.49262 -0.29100
C 	C 	0.77798 0.78796 0.54035 0.01200
C 	C 	0.87544 0.78220 0.54935 -0.12500
C 	C 	0.93480 0.75320 0.51250 0.44500
F 	F 	0.88604 0.71689 0.48772 -0.36400
F 	F 	-0.04015 0.78137 0.49089 -0.33700
C 	C 	0.02046 0.73263 0.52473 0.40200
F 	F 	0.05598 0.76450 0.55804 -0.43200
F 	F 	-0.00240 0.69424 0.53478 -0.33700
C 	C 	0.71018 0.77340 0.56129 0.24700
F 	F 	0.73063 0.75196 0.58782 -0.32000
C 	C 	0.62030 0.78152 0.55593 0.26400
F 	F 	0.55784 0.76962 0.57881 -0.34400
H 	H 	0.49197 0.83619 0.50602 0.15000
H 	H 	0.47435 0.77652 0.49890 0.09100
H 	H 	0.90365 0.81722 0.56266 0.16700
H 	H 	0.87971 0.76562 0.57263 0.17800
C 	C 	0.01865 0.21990 0.50289 -0.07000
C 	C 	0.11779 0.22798 0.50389 -0.07000
C 	C 	0.14849 0.27232 0.50740 0.24700
F 	F 	0.09138 0.30597 0.50474 -0.38200
C 	C 	0.23581 0.28390 0.51763 0.24000
F 	F 	0.25672 0.32942 0.52837 -0.31800
C 	C 	0.29867 0.24939 0.51823 0.01200
C 	C 	0.39569 0.26100 0.52634 -0.15300
C 	C 	0.43604 0.28424 0.49774 0.48000
F 	F 	0.40241 0.26518 0.45953 -0.38100
F 	F 	0.41326 0.33138 0.51238 -0.32900
C 	C 	0.53804 0.28147 0.49503 0.37900
F 	F 	0.56170 0.30830 0.47234 -0.37300
F 	F 	0.56953 0.30026 0.53342 -0.42900
C 	C 	0.26972 0.20361 0.51085 0.22600
F 	F 	0.32799 0.16915 0.51083 -0.33900
C 	C 	0.17950 0.19334 0.50497 0.25700
F 	F 	0.15260 0.14971 0.50061 -0.37300
H 	H 	-0.00457 0.22062 0.47397 0.08200
H 	H 	0.00570 0.18504 0.50392 0.10000
H 	H 	0.40077 0.28492 0.55798 0.18200
H 	H 	0.43575 0.22902 0.52338 0.16000
C 	C 	0.49682 0.61976 0.00649 -0.11200
C 	C 	0.50812 0.56910 0.00285 -0.04500
C 	C 	0.52519 0.53425 0.96500 0.26400
F 	F 	0.53330 0.54526 0.93115 -0.34600
C 	C 	0.53114 0.48729 0.96125 0.26500
F 	F 	0.55745 0.45543 0.92502 -0.30800
C 	C 	0.51053 0.47341 -0.00561 -0.00400
C 	C 	0.50786 0.42194 -0.01071 -0.14700
C 	C 	0.43103 0.39534 0.96322 0.50100
F 	F 	0.42692 0.40616 0.92848 -0.31200
F 	F 	0.45135 0.34798 -0.04895 -0.40200
C 	C 	0.33767 0.40567 -0.01503 0.37500
F 	F 	0.27317 0.39703 0.95626 -0.29900
F 	F 	0.32850 0.45219 0.00911 -0.34800
C 	C 	0.49435 0.50817 0.03244 0.25400
F 	F 	0.47760 0.49632 0.06549 -0.34000
C 	C 	0.49446 0.55553 0.03673 0.25800
F 	F 	0.47811 0.58798 0.07389 -0.34300
H 	H 	0.44087 0.62277 0.98770 0.17800
H 	H 	0.47814 0.64212 0.03797 0.16600
H 	H 	0.57257 0.40539 -0.02504 0.18400
H 	H 	0.50316 0.41707 0.01893 0.15900
C 	C 	0.62426 0.40382 0.49671 -0.10200
C 	C 	0.65338 0.45199 0.50053 -0.03700
C 	C 	0.63385 0.48968 0.53636 0.25300
F 	F 	0.60125 0.48209 0.56968 -0.34100
C 	C 	0.64236 0.53555 0.53733 0.25500
F 	F 	0.61909 0.57136 0.57180 -0.30800
C 	C 	0.66998 0.54439 0.50238 0.00700
C 	C 	0.66799 0.59358 0.50195 -0.13500
C 	C 	0.57390 0.60792 0.49274 0.48500
F 	F 	0.55770 0.58440 0.45250 -0.36300
F 	F 	0.50984 0.59597 0.51622 -0.36400
C 	C 	0.56677 0.66081 0.50191 0.38200
F 	F 	0.58195 0.68283 0.54237 -0.33300
F 	F 	0.63115 0.67411 0.47950 -0.36800
C 	C 	0.69404 0.50674 0.46721 0.25100
F 	F 	0.72110 0.51435 0.43313 -0.32400
C 	C 	0.68589 0.46091 0.46628 0.25300
F 	F 	0.70560 0.42523 0.43128 -0.31500
H 	H 	0.55809 0.40640 0.51243 0.17100
H 	H 	0.61322 0.38311 0.46461 0.17900
H 	H 	0.69048 0.61756 0.53141 0.19400
H 	H 	0.71697 0.59686 0.47896 0.18300
C 	C 	0.19424 0.09327 0.05720 -0.10000
C 	C 	0.11556 0.06251 0.04221 -0.01600
C 	C 	1.03152 0.07394 0.06222 0.23700
F 	F 	1.01933 0.11313 0.09523 -0.32500
C 	C 	0.95873 0.04562 0.04778 0.26100
F 	F 	0.87794 0.05825 0.06713 -0.30600
C 	C 	0.96862 1.00524 0.01316 -0.01800
C 	C 	0.88849 0.97650 0.99595 -0.08200
C 	C 	0.86167 0.94261 0.01781 0.46200
F 	F 	0.85460 0.96637 0.05902 -0.34400
F 	F 	0.77815 0.92626 0.00501 -0.35900
C 	C 	0.92771 0.90054 0.00885 0.39300
F 	F 	1.00723 0.91506 0.02748 -0.33900
F 	F 	0.94492 0.88040 0.96765 -0.32300
C 	C 	1.05278 0.99375 0.99330 0.26000
F 	F 	1.06460 0.95514 0.95977 -0.31800
C 	C 	0.12555 0.02201 1.00775 0.25800
F 	F 	0.20587 1.01006 0.98784 -0.32000
H 	H 	0.18311 0.11543 0.08941 0.15600
H 	H 	0.25514 0.07146 0.05552 0.14200
H 	H 	0.83110 0.00064 -0.00238 0.15600
H 	H 	0.90001 0.95673 0.96325 0.16900
C 	C 	0.96080 0.09964 0.51699 -0.07700
C 	C 	0.92667 0.06309 0.53274 -0.09600
C 	C 	-0.07449 0.07076 0.57426 0.30400
F 	F 	-0.05318 0.11283 0.60116 -0.33700
C 	C 	-0.09727 0.03501 0.58845 0.22400
F 	F 	-0.09736 0.04337 0.62870 -0.30700
C 	C 	-0.11954 0.99101 0.56144 0.05500
C 	C 	-0.14189 0.95228 0.57708 -0.12600
C 	C 	-0.05854 0.92925 0.58747 0.48300
F 	F 	-0.00985 0.96245 0.61558 -0.34600
F 	F 	-0.08803 0.89798 0.60517 -0.39800
C 	C 	0.00245 0.90364 0.54993 0.38700
F 	F 	0.04635 0.93586 0.53731 -0.34200
F 	F 	-0.04801 0.87674 0.51886 -0.31000
C 	C 	0.87901 0.98373 0.51997 0.21200
F 	F 	0.85747 0.94168 0.49310 -0.29800
C 	C 	0.90235 1.01948 0.50576 0.29500
F 	F 	0.90337 1.01122 0.46552 -0.34800
H 	H 	0.99497 0.12739 0.54078 0.12900
H 	H 	1.01235 0.08354 0.49272 0.13000
H 	H 	-0.18620 0.96667 0.60450 0.17700
H 	H 	0.81892 0.92515 0.55503 0.16300
C 	C 	0.56446 0.16173 0.29397 -0.09900
C 	C 	0.57096 0.18121 0.26024 -0.04700
C 	C 	0.57356 0.22970 0.26902 0.26100
F 	F 	0.56657 0.25945 0.30778 -0.33800
C 	C 	0.58614 0.24778 0.23806 0.25400
F 	F 	0.59404 0.29454 0.24775 -0.29500
C 	C 	0.59419 0.21773 0.19765 0.01600
C 	C 	0.61334 0.23703 0.16435 -0.14400
C 	C 	0.53252 0.26185 0.15377 0.48900
F 	F 	0.50585 0.30051 0.18664 -0.34900
F 	F 	0.56057 0.27754 0.12321 -0.39400
C 	C 	0.45228 0.22989 0.13966 0.38900
F 	F 	0.48126 0.18663 0.11302 -0.33900
F 	F 	0.40906 0.22346 0.17228 -0.35200
C 	C 	0.58966 0.16925 0.18888 0.24700
F 	F 	0.59820 0.13915 0.15030 -0.31300
C 	C 	0.57820 0.15118 0.21989 0.25800
F 	F 	0.57700 0.10419 0.21050 -0.36700
H 	H 	0.51148 0.18118 0.31636 0.09400
H 	H 	0.54513 0.12460 0.28249 0.08000
H 	H 	0.66852 0.26194 0.17348 0.19600
H 	H 	0.63888 0.20892 0.13655 0.20200
C 	C 	0.50465 0.82553 0.21368 -0.09200
C 	C 	0.49398 0.83656 0.25846 -0.05800
C 	C 	0.49479 0.88311 0.28490 0.24700
F 	F 	0.51807 0.91780 0.27115 -0.40500
C 	C 	0.46588 0.89458 0.32513 0.24200
F 	F 	0.46103 0.94014 0.34930 -0.34000
C 	C 	0.43607 0.85969 0.33950 0.00700
C 	C 	0.38731 0.87298 0.37990 -0.14200
C 	C 	0.45062 0.88147 0.41505 0.48000
F 	F 	0.50956 0.84366 0.40740 -0.35800
F 	F 	0.49987 0.92054 0.41847 -0.31700
C 	C 	0.39839 0.89015 0.45547 0.39100
F 	F 	0.45667 0.90702 0.48654 -0.33100
F 	F 	0.33146 0.92365 0.46063 -0.35200
C 	C 	0.44243 0.81272 0.31391 0.24100
F 	F 	0.41632 0.77812 0.32724 -0.36000
C 	C 	0.47094 0.80128 0.27365 0.25200
F 	F 	0.47150 0.75593 0.24895 -0.35500
H 	H 	0.46760 0.79376 0.19722 0.12100
H 	H 	0.47380 0.85421 0.20557 0.04400
H 	H 	0.34597 0.90508 0.38473 0.17200
H 	H 	0.33924 0.84556 0.37917 0.14000
C 	C 	0.40335 0.89965 0.76499 -0.08500
C 	C 	0.47219 0.88756 0.79048 -0.05500
C 	C 	0.54626 0.85819 0.77236 0.24900
F 	F 	0.55199 0.83577 0.73185 -0.36200
C 	C 	0.61750 0.85370 0.79555 0.24700
F 	F 	0.68917 0.82622 0.77696 -0.31800
C 	C 	0.61717 0.87926 0.83714 -0.00300
C 	C 	0.69938 0.87927 0.86096 -0.12900
C 	C 	0.70657 0.83723 0.87531 0.47800
F 	F 	0.69191 0.79654 0.84335 -0.35700
F 	F 	0.79297 0.83479 0.88742 -0.37000
C 	C 	0.64120 0.84119 0.91103 0.39400
F 	F 	0.55409 0.83886 0.89891 -0.32900
F 	F 	0.65170 0.88327 0.94192 -0.32100
C 	C 	0.54264 0.90796 0.85542 0.24400
F 	F 	0.54088 0.93361 0.89539 -0.31900
C 	C 	0.47071 0.91190 0.83243 0.25000
F 	F 	0.40242 0.94214 0.85087 -0.35200
H 	H 	0.34688 0.92071 0.78391 0.11400
H 	H 	0.43606 0.92220 0.75018 0.01700
H 	H 	0.75939 0.87902 0.84170 0.16700
H 	H 	0.70255 0.91229 0.88712 0.16800
C 	C 	0.48626 0.13553 0.80006 -0.09400
C 	C 	0.47565 0.14553 0.76145 -0.05400
C 	C 	0.48857 0.10983 0.72369 0.24900
F 	F 	0.50977 0.06552 0.72115 -0.39800
C 	C 	0.47977 0.11950 0.68810 0.23900
F 	F 	0.49242 0.08432 0.65215 -0.34300
C 	C 	0.45774 0.16497 0.68956 0.00800
C 	C 	0.44468 0.17512 0.65114 -0.13400
C 	C 	0.53017 0.19300 0.63681 0.48300
F 	F 	0.55861 0.23163 0.66773 -0.36500
F 	F 	0.59634 0.15837 0.62740 -0.36300
C 	C 	0.51382 0.20632 0.59923 0.38300
F 	F 	0.49346 0.16683 0.56721 -0.35700
F 	F 	0.44258 0.23791 0.60702 -0.38200
C 	C 	0.44562 0.20073 0.72732 0.24600
F 	F 	0.42329 0.24488 0.72976 -0.32500
C 	C 	0.45553 0.19120 0.76289 0.25400
F 	F 	0.44505 0.22656 0.79889 -0.34900
H 	H 	0.51048 0.09908 0.79379 0.07200
H 	H 	0.53777 0.15863 0.81800 0.07700
H 	H 	0.42322 0.14319 0.62697 0.18000
H 	H 	0.38911 0.20126 0.65632 0.17400
C 	C 	1.02426 0.70410 0.32899 -0.10400
C 	C 	1.00048 0.69619 0.28591 -0.09000
C 	C 	-0.01665 0.73426 0.27319 0.29200
F 	F 	-0.00232 0.77842 0.29815 -0.34500
C 	C 	-0.05246 0.72720 0.23540 0.22600
F 	F 	-0.07372 0.76477 0.22499 -0.33800
C 	C 	-0.06859 0.68178 0.20902 0.04700
C 	C 	-0.11161 0.67359 0.16898 -0.15700
C 	C 	-0.04175 0.66517 0.13410 0.50100
F 	F 	0.00749 0.70495 0.14029 -0.36700
F 	F 	0.01640 0.62916 0.13349 -0.31800
C 	C 	0.91536 0.65112 0.09243 0.36800
F 	F 	0.98303 0.63710 0.06303 -0.33100
F 	F 	0.86101 0.61346 0.08726 -0.36700
C 	C 	0.95119 0.64372 0.22131 0.20500
F 	F 	0.93598 0.59950 0.19665 -0.33900
C 	C 	0.98362 0.65091 0.25956 0.26300
F 	F 	0.99529 0.61357 0.27147 -0.40200
H 	H 	0.98305 0.73364 0.34970 0.12800
H 	H 	1.00613 0.67340 0.33729 0.05200
H 	H 	-0.15505 0.64286 0.16247 0.18300
H 	H 	-0.15714 0.70341 0.17112 0.15000
C 	C 	1.02098 0.29183 0.41188 -0.08600
C 	C 	1.00141 0.30919 0.37788 -0.07900
C 	C 	0.92947 0.34065 0.38137 0.25900
F 	F 	0.87428 0.35419 0.41470 -0.35200
C 	C 	0.91485 0.35906 0.35089 0.23900
F 	F 	0.84474 0.38922 0.35514 -0.31300
C 	C 	0.97329 0.34722 0.31683 -0.01200
C 	C 	0.96284 0.36960 0.28518 -0.16700
C 	C 	0.92781 0.33577 0.24522 0.49600
F 	F 	0.96624 0.29148 0.23525 -0.36000
F 	F 	0.83661 0.33196 0.25005 -0.33000
C 	C 	0.94537 0.35394 0.21015 0.32700
F 	F 	0.90074 0.32639 0.17695 -0.37000
F 	F 	-0.08850 0.39916 0.22077 -0.38700
C 	C 	0.04624 0.31662 0.31389 0.26600
F 	F 	0.10668 0.30657 0.28261 -0.32500
C 	C 	0.05953 0.29734 0.34378 0.27700
F 	F 	0.13132 0.26833 0.33996 -0.34900
H 	H 	1.07974 0.26742 0.40455 0.12100
H 	H 	1.03754 0.32228 0.43861 0.13500
H 	H 	0.91652 0.40050 0.29644 0.18000
H 	H 	0.02834 0.38342 0.28013 0.15100
C 	C 	0.02072 0.27273 0.91383 -0.06700
C 	C 	0.04890 0.27639 0.87395 -0.05100
C 	C 	0.07293 0.31946 0.87103 0.26200
F 	F 	0.07716 0.35812 0.90457 -0.32700
C 	C 	0.09073 0.32318 0.83330 0.25600
F 	F 	0.11060 0.36541 0.83103 -0.31900
C 	C 	0.08518 0.28388 0.79806 0.00700
C 	C 	0.08801 0.28926 0.75732 -0.13200
C 	C 	-0.00697 0.29845 0.74580 0.47800
F 	F 	-0.06212 0.26363 0.74851 -0.34700
F 	F 	-0.03961 0.34091 0.77253 -0.36300
C 	C 	-0.00820 0.29944 0.70278 0.40400
F 	F 	1.04726 0.33383 0.69951 -0.49100
F 	F 	0.02250 0.25684 0.67565 -0.36900
C 	C 	0.06674 0.24032 0.80123 0.25000
F 	F 	0.06313 0.20159 0.76771 -0.32400
C 	C 	0.04815 0.23669 0.83883 0.25600
F 	F 	0.02583 0.19467 0.84086 -0.35900
H 	H 	0.00130 0.30763 0.93605 0.13900
H 	H 	0.96116 0.25075 0.91032 0.10100
H 	H 	0.13147 0.31847 0.75763 0.18000
H 	H 	0.11814 0.25720 0.73445 0.17900
C 	C 	0.21489 0.64161 0.59712 -0.10300
C 	C 	0.14873 0.63489 0.62763 -0.02300
C 	C 	1.05911 0.62546 0.61791 0.22700
F 	F 	1.02900 0.62652 0.58241 -0.33900
C 	C 	1.00146 0.61189 0.64350 0.24800
F 	F 	0.91601 0.60162 0.63274 -0.32000
C 	C 	1.03296 0.60652 0.67882 0.00700
C 	C 	0.97657 0.58269 0.70184 -0.13000
C 	C 	0.91130 0.61548 0.73426 0.47900
F 	F 	0.87929 0.65049 0.72134 -0.34000
F 	F 	0.83930 0.58943 0.73843 -0.39000
C 	C 	0.95290 0.63764 0.77597 0.38300
F 	F 	1.01251 0.67115 0.77459 -0.34400
F 	F 	0.99773 0.60393 0.78665 -0.45700
C 	C 	1.12152 0.61772 0.68926 0.20500
F 	F 	0.15399 0.61295 0.72307 -0.30300
C 	C 	0.17867 0.63193 0.66404 0.27300
F 	F 	0.26471 0.64069 0.67437 -0.34200
H 	H 	0.28429 0.63725 0.60553 0.15000
H 	H 	0.20659 0.61356 0.56746 0.13800
H 	H 	0.93733 0.55563 0.67975 0.16000
H 	H 	1.01975 0.56257 0.71524 0.14900
