data_crystal

_audit_creation_method 'AiiDA-DDEC plugin'

_cell_length_a         9.80507
_cell_length_b        24.88721
_cell_length_c        23.28541

_cell_angle_alpha     90.00000
_cell_angle_beta     90.00000
_cell_angle_gamma     90.00000

_symmetry_space_group_name_Hall 'P 1'
_symmetry_space_group_name_H-M  'P 1'

loop_
_symmetry_equiv_pos_as_xyz
 'x,y,z'

loop_
_atom_site_label
_atom_site_type_symbol
_atom_site_fract_x
_atom_site_fract_y
_atom_site_fract_z
_atom_site_charge
Zn         Zn      0.98232   0.17893   0.50082   0.61293
Zn         Zn      0.51768   0.82107   0.00082   0.61294
Zn         Zn      0.01769   0.67893  -0.00081   0.61298
Zn         Zn      0.48232   0.32107   0.49919   0.61295
Zn         Zn      0.01768   0.82107   0.49919   0.61292
Zn         Zn      0.48232   0.17893  -0.00081   0.61298
Zn         Zn      0.98232   0.32107   0.00082   0.61294
Zn         Zn      0.51768   0.67893   0.50082   0.61294
Zn         Zn     -0.00209   0.00105   0.32457   0.61457
Zn         Zn      0.50209  -0.00105   0.82458   0.61456
Zn         Zn      0.00209   0.50105   0.17543   0.61458
Zn         Zn      0.49791   0.49895   0.67543   0.61450
Zn         Zn      0.00209  -0.00105   0.67543   0.61450
Zn         Zn      0.49791   0.00105   0.17543   0.61453
Zn         Zn     -0.00209   0.49895   0.82458   0.61453
Zn         Zn      0.50209   0.50105   0.32457   0.61456
H          H       0.05298   0.06159   0.44628   0.08220
H          H       0.44702   0.93842   0.94628   0.08223
H          H       0.94702   0.56159   0.05372   0.08217
H          H       0.55298   0.43841   0.55372   0.08220
H          H       0.94702   0.93842   0.55372   0.08220
H          H       0.55298   0.06159   0.05372   0.08220
H          H       0.05298   0.43841   0.94628   0.08221
H          H       0.44702   0.56159   0.44628   0.08217
H          H       0.69706   0.03516   0.27872   0.08948
H          H       0.80294   0.96485   0.77872   0.08944
H          H       0.30294   0.53516   0.22128   0.08950
H          H       0.19706   0.46485   0.72128   0.08941
H          H       0.30294   0.96485   0.72128   0.08939
H          H       0.19706   0.03515   0.22128   0.08944
H          H       0.69706   0.46485   0.77872   0.08946
H          H       0.80294   0.53516   0.27872   0.08951
H          H       0.00793   0.27678   0.41186   0.10383
H          H       0.49207   0.72322   0.91186   0.10388
H          H       0.99207   0.77678   0.08814   0.10383
H          H       0.50793   0.22322   0.58814   0.10387
H          H       0.99207   0.72322   0.58814   0.10385
H          H       0.50793   0.27678   0.08814   0.10391
H          H       0.00793   0.22322   0.91186   0.10380
H          H       0.49207   0.77678   0.41186   0.10381
H          H       0.00798   0.94424   0.20048   0.10906
H          H       0.49202   0.05576   0.70048   0.10911
H          H       0.99202   0.44424   0.29952   0.10908
H          H       0.50798   0.55576   0.79952   0.10913
H          H       0.99202   0.05576   0.79952   0.10909
H          H       0.50798   0.94424   0.29952   0.10906
H          H       0.00798   0.55576   0.70048   0.10910
H          H       0.49202   0.44424   0.20048   0.10909
H          H       0.29449   0.21562   0.52953   0.07712
H          H       0.20551   0.78439   0.02953   0.07717
H          H       0.70551   0.71562   0.97047   0.07706
H          H       0.79449   0.28438   0.47047   0.07712
H          H       0.70551   0.78439   0.47047   0.07717
H          H       0.79449   0.21562   0.97047   0.07709
H          H       0.29449   0.28438   0.02953   0.07714
H          H       0.20551   0.71562   0.52953   0.07708
H          H       0.77448   0.93922   0.13325   0.10425
H          H       0.72552   0.06078   0.63325   0.10427
H          H       0.22552   0.43922   0.36675   0.10425
H          H       0.27448   0.56078   0.86675   0.10428
H          H       0.22552   0.06078   0.86675   0.10427
H          H       0.27448   0.93922   0.36675   0.10427
H          H       0.77448   0.56078   0.63325   0.10426
H          H       0.72552   0.43922   0.13325   0.10427
H          H       0.93762   0.05838   0.54896   0.08310
H          H       0.56238   0.94162   0.04896   0.08312
H          H       0.06238   0.55838   0.95104   0.08309
H          H       0.43762   0.44162   0.45104   0.08310
H          H       0.06238   0.94162   0.45104   0.08314
H          H       0.43762   0.05838   0.95104   0.08310
H          H       0.93762   0.44162   0.04896   0.08314
H          H       0.56238   0.55838   0.54896   0.08309
H          H       0.74070   0.16021   0.59124   0.10542
H          H       0.75930   0.83980   0.09124   0.10546
H          H       0.25930   0.66021   0.90876   0.10539
H          H       0.24070   0.33980   0.40876   0.10544
H          H       0.25930   0.83980   0.40876   0.10546
H          H       0.24070   0.16021   0.90876   0.10542
H          H       0.74070   0.33980   0.09124   0.10544
H          H       0.75930   0.66021   0.59124   0.10539
H          H       0.82083   0.19017   0.38130   0.10585
H          H       0.67917   0.80983   0.88130   0.10573
H          H       0.17917   0.69017   0.11870   0.10591
H          H       0.32083   0.30983   0.61870   0.10581
H          H       0.17917   0.80983   0.61870   0.10573
H          H       0.32083   0.19017   0.11870   0.10586
H          H       0.82083   0.30983   0.88130   0.10580
H          H       0.67917   0.69017   0.38130   0.10591
H          H       0.18115   0.10210   0.69061   0.11231
H          H       0.31885   0.89790   0.19061   0.11229
H          H       0.81885   0.60210   0.80939   0.11224
H          H       0.68115   0.39790   0.30939   0.11229
H          H       0.81885   0.89790   0.30939   0.11229
H          H       0.68115   0.10210   0.80939   0.11229
H          H       0.18115   0.39790   0.19061   0.11231
H          H       0.31885   0.60210   0.69061   0.11232
H          H       0.84853   0.11251   0.29667   0.11015
H          H       0.65147   0.88749   0.79667   0.11016
H          H       0.15147   0.61252   0.20333   0.11012
H          H       0.34853   0.38749   0.70333   0.11017
H          H       0.15147   0.88749   0.70333   0.11019
H          H       0.34853   0.11251   0.20333   0.11016
H          H       0.84853   0.38749   0.79667   0.11016
H          H       0.65147   0.61252   0.29667   0.11013
H          H       0.17001   0.18712   0.61346   0.10625
H          H       0.32999   0.81288   0.11346   0.10621
H          H       0.82999   0.68712   0.88654   0.10629
H          H       0.67001   0.31288   0.38654   0.10625
H          H       0.82999   0.81288   0.38654   0.10620
H          H       0.67001   0.18712   0.88654   0.10626
H          H       0.17001   0.31288   0.11346   0.10623
H          H       0.32999   0.68712   0.61346   0.10635
C          C       0.99227   0.08569   0.41714   0.11209
C          C       0.50773   0.91431   0.91714   0.11223
C          C       0.00773   0.58569   0.08286   0.11216
C          C       0.49227   0.41431   0.58286   0.11216
C          C       0.00773   0.91431   0.58286   0.11216
C          C       0.49227   0.08569   0.08286   0.11211
C          C       0.99227   0.41431   0.91714   0.11219
C          C       0.50773   0.58569   0.41714   0.11214
C          C       0.75021   0.01009   0.24794   0.11236
C          C       0.74978   0.98992   0.74794   0.11230
C          C       0.24978   0.51009   0.25206   0.11237
C          C       0.25022   0.48992   0.75206   0.11231
C          C       0.24979   0.98992   0.75206   0.11235
C          C       0.25022   0.01009   0.25206   0.11241
C          C       0.75022   0.48992   0.74794   0.11229
C          C       0.74978   0.51009   0.24794   0.11233
C          C       0.10082   0.27387   0.43672  -0.07214
C          C       0.39918   0.72613   0.93672  -0.07222
C          C       0.89917   0.77388   0.06328  -0.07208
C          C       0.60082   0.22613   0.56328  -0.07219
C          C       0.89918   0.72613   0.56328  -0.07220
C          C       0.60082   0.27387   0.06328  -0.07226
C          C       0.10083   0.22613   0.93672  -0.07217
C          C       0.39918   0.77388   0.43672  -0.07201
C          C       0.90889   0.96251   0.20663  -0.07227
C          C       0.59111   0.03749   0.70663  -0.07229
C          C       0.09111   0.46251   0.29337  -0.07234
C          C       0.40889   0.53749   0.79337  -0.07221
C          C       0.09111   0.03749   0.79337  -0.07228
C          C       0.40889   0.96251   0.29337  -0.07224
C          C       0.90889   0.53749   0.70663  -0.07223
C          C       0.59111   0.46251   0.20663  -0.07228
C          C       0.24687   0.24175   0.49819   0.11177
C          C       0.25313   0.75825   0.99819   0.11180
C          C       0.75313   0.74175   0.00181   0.11167
C          C       0.74687   0.25825   0.50181   0.11175
C          C       0.75313   0.75825   0.50181   0.11174
C          C       0.74687   0.24175   0.00181   0.11174
C          C       0.24687   0.25825   0.99819   0.11180
C          C       0.25313   0.74175   0.49819   0.11175
C          C       0.79301   0.96011   0.17330  -0.07066
C          C       0.70699   0.03989   0.67330  -0.07058
C          C       0.20699   0.46011   0.32670  -0.07047
C          C       0.29301   0.53989   0.82670  -0.07038
C          C       0.20699   0.03989   0.82670  -0.07044
C          C       0.29301   0.96011   0.32670  -0.07067
C          C       0.79301   0.53989   0.67330  -0.07053
C          C       0.70699   0.46011   0.17330  -0.07061
C          C       0.00315   0.08157   0.57712   0.10492
C          C       0.49685   0.91843   0.07712   0.10501
C          C      -0.00315   0.58157   0.92288   0.10496
C          C       0.50315   0.41843   0.42288   0.10508
C          C      -0.00315   0.91843   0.42288   0.10506
C          C       0.50315   0.08157   0.92288   0.10501
C          C       0.00315   0.41843   0.07712   0.10498
C          C       0.49685   0.58157   0.57712   0.10489
C          C       0.71648   0.19479   0.56491  -0.06580
C          C       0.78351   0.80521   0.06491  -0.06571
C          C       0.28352   0.69479   0.93509  -0.06589
C          C       0.21648   0.30521   0.43509  -0.06579
C          C       0.28352   0.80521   0.43509  -0.06573
C          C       0.21649   0.19479   0.93509  -0.06583
C          C       0.71648   0.30521   0.06491  -0.06572
C          C       0.78352   0.69479   0.56491  -0.06583
C          C       0.87326   0.15190   0.38227  -0.06570
C          C       0.62674   0.84810   0.88227  -0.06558
C          C       0.12673   0.65190   0.11773  -0.06575
C          C       0.37326   0.34810   0.61773  -0.06566
C          C       0.12674   0.84810   0.61773  -0.06558
C          C       0.37326   0.15190   0.11773  -0.06572
C          C       0.87327   0.34810   0.88227  -0.06567
C          C       0.62674   0.65190   0.38227  -0.06575
C          C       0.12972   0.10550   0.64964  -0.06722
C          C       0.37028   0.89450   0.14964  -0.06714
C          C       0.87028   0.60550   0.85036  -0.06716
C          C       0.62972   0.39450   0.35036  -0.06721
C          C       0.87028   0.89450   0.35036  -0.06717
C          C       0.62972   0.10550   0.85036  -0.06722
C          C       0.12972   0.39450   0.14964  -0.06722
C          C       0.37028   0.60550   0.64964  -0.06719
C          C       0.88576   0.11315   0.34042  -0.07161
C          C       0.61424   0.88686   0.84042  -0.07183
C          C       0.11424   0.61315   0.15958  -0.07149
C          C       0.38576   0.38686   0.65958  -0.07172
C          C       0.11424   0.88686   0.65958  -0.07177
C          C       0.38576   0.11315   0.15958  -0.07161
C          C       0.88576   0.38686   0.84042  -0.07175
C          C       0.61424   0.61315   0.34042  -0.07151
C          C       0.12492   0.14749   0.61121  -0.07096
C          C       0.37508   0.85251   0.11121  -0.07122
C          C       0.87508   0.64749   0.88879  -0.07103
C          C       0.62492   0.35251   0.38879  -0.07114
C          C       0.87508   0.85251   0.38879  -0.07115
C          C       0.62492   0.14749   0.88879  -0.07103
C          C       0.12492   0.35251   0.11121  -0.07111
C          C       0.37508   0.64749   0.61121  -0.07110
N          N       0.12037   0.23366   0.47699  -0.28415
N          N       0.37963   0.76634   0.97699  -0.28402
N          N       0.87963   0.73366   0.02301  -0.28420
N          N       0.62037   0.26634   0.52301  -0.28406
N          N       0.87963   0.76634   0.52301  -0.28403
N          N       0.62037   0.23366   0.02301  -0.28408
N          N       0.12037   0.26634   0.97699  -0.28407
N          N       0.37963   0.73366   0.47699  -0.28425
N          N       0.80890   0.21531   0.52572  -0.28850
N          N       0.69110   0.78469   0.02572  -0.28846
N          N       0.19110   0.71531   0.97428  -0.28854
N          N       0.30890   0.28469   0.47428  -0.28852
N          N       0.19110   0.78469   0.47428  -0.28853
N          N       0.30890   0.21531   0.97428  -0.28852
N          N       0.80890   0.28469   0.02572  -0.28854
N          N       0.69110   0.71531   0.52572  -0.28851
N          N       0.88118   0.99434   0.25404  -0.29040
N          N       0.61882   0.00566   0.75404  -0.29034
N          N       0.11882   0.49434   0.24596  -0.29050
N          N       0.38118   0.50566   0.74596  -0.29049
N          N       0.11882   0.00566   0.74596  -0.29040
N          N       0.38118   0.99434   0.24596  -0.29040
N          N       0.88118   0.50566   0.75404  -0.29043
N          N       0.61882   0.49434   0.25404  -0.29040
N          N       0.19258   0.99044   0.30032  -0.28852
N          N       0.30743   0.00957   0.80032  -0.28862
N          N       0.80742   0.49043   0.19968  -0.28858
N          N       0.69258   0.50957   0.69968  -0.28857
N          N       0.80743   0.00957   0.69968  -0.28853
N          N       0.69257   0.99044   0.19968  -0.28849
N          N       0.19258   0.50957   0.80032  -0.28869
N          N       0.30743   0.49043   0.30032  -0.28857
N          N       0.94108   0.13430   0.43088  -0.28876
N          N       0.55892   0.86570   0.93088  -0.28885
N          N       0.05892   0.63430   0.06912  -0.28874
N          N       0.44108   0.36570   0.56912  -0.28887
N          N       0.05892   0.86570   0.56912  -0.28886
N          N       0.44108   0.13430   0.06912  -0.28879
N          N       0.94108   0.36570   0.93088  -0.28882
N          N       0.55892   0.63430   0.43088  -0.28872
N          N       0.96106   0.07099   0.36290  -0.28858
N          N       0.53894   0.92901   0.86290  -0.28847
N          N       0.03894   0.57099   0.13710  -0.28875
N          N       0.46106   0.42901   0.63710  -0.28844
N          N       0.03894   0.92901   0.63710  -0.28843
N          N       0.46106   0.07099   0.13710  -0.28856
N          N       0.96106   0.42901   0.86290  -0.28850
N          N       0.53894   0.57099   0.36290  -0.28875
N          N       0.04471   0.13213   0.56514  -0.28372
N          N       0.45529   0.86787   0.06514  -0.28373
N          N       0.95529   0.63213   0.93486  -0.28360
N          N       0.54471   0.36787   0.43486  -0.28371
N          N       0.95529   0.86787   0.43486  -0.28376
N          N       0.54471   0.13213   0.93486  -0.28366
N          N       0.04471   0.36787   0.06514  -0.28371
N          N       0.45529   0.63213   0.56514  -0.28357
N          N       0.05205   0.06374   0.62784  -0.28870
N          N       0.44795   0.93626   0.12784  -0.28858
N          N       0.94795   0.56374   0.87216  -0.28885
N          N       0.55205   0.43626   0.37216  -0.28874
N          N       0.94795   0.93626   0.37216  -0.28865
N          N       0.55205   0.06374   0.87216  -0.28878
N          N       0.05205   0.43626   0.12784  -0.28869
N          N       0.44795   0.56374   0.62784  -0.28882

