data_crystal

_cell_length_a 12.35100
_cell_length_b 13.95800
_cell_length_c 18.50700
_cell_angle_alpha 90.00000
_cell_angle_beta  90.00000
_cell_angle_gamma 113.79000

_symmetry_space_group_name_	'P 1'
_symmetry_space_group_name_H-M	'P 1'

loop_
_symmetry_equiv_pos_as_xyz
  x,y,z

loop_
_atom_site_label
_atom_site_type_symbol
_atom_site_fract_x
_atom_site_fract_y
_atom_site_fract_z
_atom_site_charge
Mn	Mn	0.67721 0.91508 0.48099 1.24400
Mn	Mn	0.82279 0.08492 0.98099 1.24900
Mn	Mn	0.32279 0.08492 0.51901 1.24100
Mn	Mn	0.17721 0.91508 0.01901 1.23300
Mn	Mn	1.00000 1.00000 0.50000 1.30300
Mn	Mn	0.50000 0.00000 -0.00000 1.29700
H 	H 	0.59820 0.66210 0.62770 0.01300
H 	H 	0.56510 0.51230 0.69330 0.06800
H 	H 	0.90940 0.61990 0.73930 0.06400
H 	H 	0.94310 0.77240 0.67670 0.01300
H 	H 	0.86290 0.43520 0.72970 0.05700
H 	H 	0.84310 0.29350 0.80120 0.01200
H 	H 	0.53530 0.28460 0.87670 0.03300
H 	H 	0.55780 0.42860 0.80810 0.06700
H 	H 	0.99850 0.23090 0.44810 0.07000
H 	H 	0.08520 0.41070 0.43830 -0.00100
H 	H 	0.84690 0.43130 0.57630 0.01100
H 	H 	0.75560 0.25120 0.58280 0.05000
H 	H 	0.90180 0.33790 0.12770 0.00300
H 	H 	0.93490 0.48770 0.19330 0.06000
H 	H 	0.59060 0.38010 0.23930 0.06900
H 	H 	0.55690 0.22760 0.17670 0.01800
H 	H 	0.63710 0.56480 0.22970 0.06300
H 	H 	0.65690 0.70650 0.30120 0.01600
H 	H 	0.96470 0.71540 0.37670 0.02000
H 	H 	0.94220 0.57140 0.30810 0.06000
H 	H 	0.50150 0.76910 0.94810 0.03700
H 	H 	0.41480 0.58930 0.93830 0.03500
H 	H 	0.65310 0.56870 0.07630 0.03200
H 	H 	0.74440 0.74880 0.08280 0.02400
H 	H 	0.40180 0.33790 0.37230 0.01300
H 	H 	0.43490 0.48770 0.30670 0.06700
H 	H 	0.09060 0.38010 0.26070 0.07300
H 	H 	0.05690 0.22760 0.32330 0.02400
H 	H 	0.13710 0.56480 0.27030 0.06900
H 	H 	0.15690 0.70650 0.19880 0.02000
H 	H 	0.46470 0.71540 0.12330 0.02500
H 	H 	0.44220 0.57140 0.19190 0.06600
H 	H 	0.00150 0.76910 0.55190 -0.02000
H 	H 	0.91480 0.58930 0.56170 0.13900
H 	H 	0.15310 0.56870 0.42370 0.12000
H 	H 	0.24440 0.74880 0.41720 -0.02800
H 	H 	0.09820 0.66210 0.87230 0.02500
H 	H 	0.06510 0.51230 0.80670 0.07600
H 	H 	0.40940 0.61990 0.76070 0.06800
H 	H 	0.44310 0.77240 0.82330 0.02000
H 	H 	0.36290 0.43520 0.77030 0.06400
H 	H 	0.34310 0.29350 0.69880 0.01700
H 	H 	0.03530 0.28460 0.62330 0.03700
H 	H 	0.05780 0.42860 0.69190 0.07300
H 	H 	0.49850 0.23090 0.05190 0.01300
H 	H 	0.58520 0.41070 0.06170 0.10400
H 	H 	0.34690 0.43130 0.92370 0.10000
H 	H 	0.25560 0.25120 0.91720 -0.00100
C 	C 	0.77410 0.73260 0.64390 -0.14200
C 	C 	0.66150 0.65410 0.65000 0.05300
C 	C 	0.64170 0.56340 0.68910 -0.12600
C 	C 	0.73460 0.54800 0.72200 0.04600
C 	C 	0.84620 0.62780 0.71670 -0.12600
C 	C 	0.86710 0.71980 0.67870 0.04800
C 	C 	0.71440 0.45010 0.76280 0.03600
C 	C 	0.79790 0.40630 0.76020 -0.11700
C 	C 	0.78530 0.32030 0.80250 0.04300
C 	C 	0.68640 0.27370 0.84710 -0.13200
C 	C 	0.60220 0.31530 0.84790 0.04500
C 	C 	0.61580 0.40200 0.80650 -0.11200
C 	C 	0.79570 0.82730 0.59640 0.40600
C 	C 	0.67520 0.18240 0.89550 0.40800
C 	C 	0.86730 0.22260 0.51530 -0.04100
C 	C 	0.96630 0.27110 0.47300 -0.12100
C 	C 	0.01850 0.37920 0.46710 0.09200
C 	C 	0.97220 0.44150 0.50400 -0.15200
C 	C 	0.87610 0.39130 0.54880 0.02000
C 	C 	0.82200 0.28300 0.55370 -0.07400
C 	C 	0.80600 0.10610 0.51600 0.30800
C 	C 	0.72590 0.26740 0.14390 -0.14500
C 	C 	0.83850 0.34590 0.15000 0.05100
C 	C 	0.85830 0.43660 0.18910 -0.12900
C 	C 	0.76540 0.45200 0.22200 0.04400
C 	C 	0.65380 0.37220 0.21670 -0.12600
C 	C 	0.63290 0.28020 0.17870 0.05000
C 	C 	0.78560 0.54990 0.26280 0.03600
C 	C 	0.70210 0.59370 0.26020 -0.11900
C 	C 	0.71470 0.67970 0.30250 0.04600
C 	C 	0.81360 0.72630 0.34710 -0.13900
C 	C 	0.89780 0.68470 0.34790 0.04600
C 	C 	0.88420 0.59800 0.30650 -0.11700
C 	C 	0.70430 0.17270 0.09640 0.40500
C 	C 	0.82480 0.81760 0.39550 0.41000
C 	C 	0.63270 0.77740 0.01530 -0.13000
C 	C 	0.53370 0.72890 0.97300 0.02900
C 	C 	0.48150 0.62080 0.96710 -0.00400
C 	C 	0.52780 0.55850 0.00400 -0.10100
C 	C 	0.62390 0.60870 0.04880 -0.04300
C 	C 	0.67800 0.71700 0.05370 -0.00700
C 	C 	0.69400 0.89390 0.01600 0.29600
C 	C 	0.22590 0.26740 0.35610 -0.13700
C 	C 	0.33850 0.34590 0.35000 0.05100
C 	C 	0.35830 0.43660 0.31090 -0.12400
C 	C 	0.26540 0.45200 0.27800 0.04500
C 	C 	0.15380 0.37220 0.28330 -0.12200
C 	C 	0.13290 0.28020 0.32130 0.04900
C 	C 	0.28560 0.54990 0.23720 0.03900
C 	C 	0.20210 0.59370 0.23980 -0.11900
C 	C 	0.21470 0.67970 0.19750 0.04800
C 	C 	0.31360 0.72630 0.15290 -0.13800
C 	C 	0.39780 0.68470 0.15210 0.04500
C 	C 	0.38420 0.59800 0.19350 -0.11700
C 	C 	0.20430 0.17270 0.40360 0.40300
C 	C 	0.32480 0.81760 0.10450 0.40800
C 	C 	0.13270 0.77740 0.48470 -0.23000
C 	C 	0.03370 0.72890 0.52700 0.20900
C 	C 	0.98150 0.62080 0.53290 -0.32400
C 	C 	0.02780 0.55850 0.49600 0.23900
C 	C 	0.12390 0.60870 0.45120 -0.26200
C 	C 	0.17800 0.71700 0.44630 0.16400
C 	C 	0.19400 0.89390 0.48400 0.38100
C 	C 	0.27410 0.73260 0.85610 -0.13200
C 	C 	0.16150 0.65410 0.85000 0.05200
C 	C 	0.14170 0.56340 0.81090 -0.12000
C 	C 	0.23460 0.54800 0.77800 0.04700
C 	C 	0.34620 0.62780 0.78330 -0.12100
C 	C 	0.36710 0.71980 0.82130 0.04700
C 	C 	0.21440 0.45010 0.73720 0.04000
C 	C 	0.29790 0.40630 0.73980 -0.11600
C 	C 	0.28530 0.32030 0.69750 0.04500
C 	C 	0.18640 0.27370 0.65290 -0.13000
C 	C 	0.10220 0.31530 0.65210 0.04500
C 	C 	0.11580 0.40200 0.69350 -0.11100
C 	C 	0.29570 0.82730 0.90360 0.40200
C 	C 	0.17520 0.18240 0.60450 0.40700
C 	C 	0.36730 0.22260 0.98470 -0.14200
C 	C 	0.46630 0.27110 0.02700 0.06100
C 	C 	0.51850 0.37920 0.03290 -0.22500
C 	C 	0.47220 0.44150 0.99600 0.18700
C 	C 	0.37610 0.39130 0.95120 -0.19800
C 	C 	0.32200 0.28300 0.94630 0.09800
C 	C 	0.30600 0.10610 0.98400 0.38900
O 	O 	0.90100 0.88870 0.58510 -0.44600
O 	O 	0.70550 0.83590 0.57250 -0.48100
O 	O 	0.77070 0.17190 0.90620 -0.49600
O 	O 	0.57650 0.12690 0.92040 -0.43500
O 	O 	0.85630 0.05210 0.48590 -0.53700
O 	O 	0.70310 0.06240 0.54090 -0.44400
O 	O 	0.59900 0.11130 0.08510 -0.44700
O 	O 	0.79450 0.16410 0.07250 -0.49800
O 	O 	0.72930 0.82810 0.40620 -0.49800
O 	O 	0.92350 0.87310 0.42040 -0.45400
O 	O 	0.64370 0.94790 0.98590 -0.49300
O 	O 	0.79690 0.93760 0.04090 -0.45400
O 	O 	0.09900 0.11130 0.41490 -0.43200
O 	O 	0.29450 0.16410 0.42750 -0.48100
O 	O 	0.22930 0.82810 0.09380 -0.50100
O 	O 	0.42350 0.87310 0.07960 -0.45300
O 	O 	0.14370 0.94790 0.51410 -0.53700
O 	O 	0.29690 0.93760 0.45910 -0.45500
O 	O 	0.40100 0.88870 0.91490 -0.42500
O 	O 	0.20550 0.83590 0.92750 -0.45800
O 	O 	0.27070 0.17190 0.59380 -0.49600
O 	O 	0.07650 0.12690 0.57960 -0.43400
O 	O 	0.35630 0.05210 0.01410 -0.57400
O 	O 	0.20310 0.06240 0.95910 -0.44400
