data_crystal

_cell_length_a 18.25070
_cell_length_b 18.16510
_cell_length_c 18.85180
_cell_angle_alpha 90.00000
_cell_angle_beta  90.00000
_cell_angle_gamma 90.00000

_symmetry_space_group_name_	'P 1'
_symmetry_space_group_name_H-M	'P 1'

loop_
_symmetry_equiv_pos_as_xyz
  x,y,z

loop_
_atom_site_label
_atom_site_type_symbol
_atom_site_fract_x
_atom_site_fract_y
_atom_site_fract_z
_atom_site_charge
Mn	Mn	0.22371 0.69334 0.08938 1.25800
Mn	Mn	0.22053 0.49140 0.09417 1.28800
O 	O 	0.23449 0.38399 0.13491 -0.51400
O 	O 	0.31773 0.52377 0.14579 -0.47600
O 	O 	0.22958 0.50278 0.48788 -0.41200
O 	O 	0.64147 0.53542 0.33741 -0.47200
O 	O 	0.28815 0.40360 0.52109 -0.55000
O 	O 	0.63283 0.65704 0.34648 -0.45100
O 	O 	0.27644 0.27736 0.17102 -0.49000
O 	O 	0.31121 0.64584 0.14813 -0.51600
O 	O 	0.31620 0.25589 0.29935 -0.47800
H 	H 	0.31560 0.24760 0.25660 0.30400
O 	O 	0.41470 0.72130 0.20040 -0.47200
H 	H 	0.37580 0.71370 0.18010 0.28700
C 	C 	0.25382 0.34154 0.18274 0.49200
C 	C 	0.25136 0.36426 0.25903 -0.29600
C 	C 	0.21670 0.42873 0.27816 0.14700
H 	H 	0.19310 0.45650 0.24360 -0.02300
C 	C 	0.21630 0.45305 0.34828 -0.15100
H 	H 	0.19300 0.49690 0.36020 0.09900
C 	C 	0.25070 0.41174 0.39994 0.02400
C 	C 	0.28366 0.34554 0.38221 -0.22800
H 	H 	0.30580 0.31720 0.41730 0.09300
C 	C 	0.28382 0.32117 0.31219 0.34300
C 	C 	0.25542 0.44009 0.47402 0.29400
C 	C 	0.34118 0.58561 0.16266 0.46800
C 	C 	0.41220 0.58928 0.20365 -0.27400
C 	C 	0.44540 0.52470 0.22660 0.13300
H 	H 	0.42400 0.47950 0.21620 -0.00100
C 	C 	0.50990 0.52706 0.26460 -0.14900
H 	H 	0.53170 0.48350 0.27960 0.09000
C 	C 	0.54238 0.59439 0.28078 0.03300
C 	C 	0.51002 0.65840 0.25786 -0.23100
H 	H 	0.53170 0.70350 0.26810 0.14100
C 	C 	0.44510 0.65631 0.21948 0.33800
C 	C 	0.61145 0.59602 0.32482 0.35500
Mn	Mn	0.27629 0.30666 0.58938 1.25700
Mn	Mn	0.27947 0.50860 0.59417 1.28700
O 	O 	0.26551 0.61601 0.63491 -0.51400
O 	O 	0.18227 0.47623 0.64579 -0.47600
O 	O 	0.27042 0.49722 0.98788 -0.41300
O 	O 	0.85853 0.46458 0.83741 -0.47200
O 	O 	0.21185 0.59640 0.02109 -0.55200
O 	O 	0.86717 0.34296 0.84648 -0.45200
O 	O 	0.22356 0.72264 0.67102 -0.49000
O 	O 	0.18879 0.35416 0.64813 -0.51600
O 	O 	0.18380 0.74411 0.79935 -0.47700
H 	H 	0.18440 0.75240 0.75660 0.30400
O 	O 	0.08530 0.27870 0.70040 -0.47200
H 	H 	0.12420 0.28630 0.68010 0.28700
C 	C 	0.24618 0.65846 0.68274 0.49200
C 	C 	0.24864 0.63574 0.75903 -0.29600
C 	C 	0.28330 0.57127 0.77816 0.14600
H 	H 	0.30690 0.54350 0.74360 -0.02300
C 	C 	0.28370 0.54695 0.84828 -0.15100
H 	H 	0.30700 0.50310 0.86020 0.09800
C 	C 	0.24930 0.58826 0.89994 0.02300
C 	C 	0.21634 0.65446 0.88221 -0.22700
H 	H 	0.19420 0.68280 0.91730 0.09400
C 	C 	0.21618 0.67883 0.81219 0.34300
C 	C 	0.24458 0.55991 0.97402 0.29700
C 	C 	0.15882 0.41439 0.66266 0.46900
C 	C 	0.08780 0.41072 0.70365 -0.27500
C 	C 	0.05460 0.47530 0.72660 0.13500
H 	H 	0.07600 0.52050 0.71620 -0.00100
C 	C 	0.99010 0.47294 0.76460 -0.15100
H 	H 	0.96830 0.51650 0.77960 0.09000
C 	C 	0.95762 0.40561 0.78078 0.03400
C 	C 	0.98998 0.34160 0.75786 -0.23300
H 	H 	0.96830 0.29650 0.76810 0.14100
C 	C 	0.05490 0.34369 0.71948 0.33900
C 	C 	0.88855 0.40398 0.82482 0.35500
Mn	Mn	0.77629 0.19334 0.41062 1.25700
Mn	Mn	0.77947 0.99140 0.40583 1.28600
O 	O 	0.76551 0.88399 0.36509 -0.51500
O 	O 	0.68227 0.02377 0.35421 -0.47500
O 	O 	0.77042 0.00278 0.01212 -0.40000
O 	O 	0.35853 0.03542 0.16259 -0.47000
O 	O 	0.71185 0.90360 0.97891 -0.54100
O 	O 	0.36717 0.15704 0.15352 -0.45100
O 	O 	0.72356 0.77736 0.32898 -0.49000
O 	O 	0.68879 0.14584 0.35187 -0.51600
O 	O 	0.68380 0.75589 0.20065 -0.47900
H 	H 	0.68440 0.74760 0.24340 0.30400
O 	O 	0.58530 0.22130 0.29960 -0.47100
H 	H 	0.62420 0.21370 0.31990 0.28700
C 	C 	0.74618 0.84154 0.31726 0.49300
C 	C 	0.74864 0.86426 0.24097 -0.29800
C 	C 	0.78330 0.92873 0.22184 0.14900
H 	H 	0.80690 0.95650 0.25640 -0.02500
C 	C 	0.78370 0.95305 0.15172 -0.15700
H 	H 	0.80700 0.99690 0.13980 0.09800
C 	C 	0.74930 0.91174 0.10006 0.03000
C 	C 	0.71634 0.84554 0.11779 -0.23300
H 	H 	0.69420 0.81720 0.08270 0.09400
C 	C 	0.71618 0.82117 0.18781 0.34500
C 	C 	0.74458 0.94009 0.02598 0.27500
C 	C 	0.65882 0.08561 0.33734 0.46900
C 	C 	0.58780 0.08928 0.29635 -0.27500
C 	C 	0.55460 0.02470 0.27340 0.13600
H 	H 	0.57600 0.97950 0.28380 -0.00400
C 	C 	0.49010 0.02706 0.23540 -0.14200
H 	H 	0.46830 0.98350 0.22040 0.08500
C 	C 	0.45762 0.09439 0.21922 0.03200
C 	C 	0.48998 0.15840 0.24214 -0.23000
H 	H 	0.46830 0.20350 0.23190 0.14100
C 	C 	0.55490 0.15631 0.28052 0.33800
C 	C 	0.38855 0.09602 0.17518 0.35600
Mn	Mn	0.72371 0.80666 0.91062 1.25800
Mn	Mn	0.72053 0.00860 0.90583 1.28400
O 	O 	0.73449 0.11601 0.86509 -0.51600
O 	O 	0.81773 0.97623 0.85421 -0.47400
O 	O 	0.72958 0.99722 0.51212 -0.41300
O 	O 	0.14147 0.96458 0.66259 -0.47100
O 	O 	0.78815 0.09640 0.47891 -0.55000
O 	O 	0.13283 0.84296 0.65352 -0.45200
O 	O 	0.77644 0.22264 0.82898 -0.49100
O 	O 	0.81121 0.85416 0.85187 -0.51500
O 	O 	0.81620 0.24411 0.70065 -0.47800
H 	H 	0.81560 0.25240 0.74340 0.30400
O 	O 	0.91470 0.77870 0.79960 -0.47000
H 	H 	0.87580 0.78630 0.81990 0.28700
C 	C 	0.75382 0.15846 0.81726 0.49200
C 	C 	0.75136 0.13574 0.74097 -0.29700
C 	C 	0.71670 0.07127 0.72184 0.14700
H 	H 	0.69310 0.04350 0.75640 -0.02400
C 	C 	0.71630 0.04695 0.65172 -0.15200
H 	H 	0.69300 0.00310 0.63980 0.09800
C 	C 	0.75070 0.08826 0.60006 0.02400
C 	C 	0.78366 0.15446 0.61779 -0.22800
H 	H 	0.80580 0.18280 0.58270 0.09300
C 	C 	0.78382 0.17883 0.68781 0.34300
C 	C 	0.75542 0.05991 0.52598 0.29400
C 	C 	0.84118 0.91439 0.83734 0.46600
C 	C 	0.91220 0.91072 0.79635 -0.26900
C 	C 	0.94540 0.97530 0.77340 0.12400
H 	H 	0.92400 0.02050 0.78380 0.00000
C 	C 	0.00990 0.97294 0.73540 -0.13000
H 	H 	0.03170 0.01650 0.72040 0.08000
C 	C 	0.04238 0.90561 0.71922 0.02500
C 	C 	0.01002 0.84160 0.74214 -0.22200
H 	H 	0.03170 0.79650 0.73190 0.13800
C 	C 	0.94510 0.84369 0.78052 0.33200
C 	C 	0.11145 0.90398 0.67518 0.35800
Mn	Mn	0.77629 0.30666 0.91062 1.25700
Mn	Mn	0.77947 0.50860 0.90583 1.28700
O 	O 	0.76551 0.61601 0.86509 -0.51400
O 	O 	0.68227 0.47623 0.85421 -0.47600
O 	O 	0.77042 0.49722 0.51212 -0.41200
O 	O 	0.35853 0.46458 0.66259 -0.47200
O 	O 	0.71185 0.59640 0.47891 -0.55000
O 	O 	0.36717 0.34296 0.65352 -0.45100
O 	O 	0.72356 0.72264 0.82898 -0.49000
O 	O 	0.68879 0.35416 0.85187 -0.51600
O 	O 	0.68380 0.74411 0.70065 -0.47800
H 	H 	0.68440 0.75240 0.74340 0.30400
O 	O 	0.58530 0.27870 0.79960 -0.47200
H 	H 	0.62420 0.28630 0.81990 0.28700
C 	C 	0.74618 0.65846 0.81726 0.49200
C 	C 	0.74864 0.63574 0.74097 -0.29600
C 	C 	0.78330 0.57127 0.72184 0.14700
H 	H 	0.80690 0.54350 0.75640 -0.02300
C 	C 	0.78370 0.54695 0.65172 -0.15100
H 	H 	0.80700 0.50310 0.63980 0.09900
C 	C 	0.74930 0.58826 0.60006 0.02400
C 	C 	0.71634 0.65446 0.61779 -0.22800
H 	H 	0.69420 0.68280 0.58270 0.09300
C 	C 	0.71618 0.67883 0.68781 0.34300
C 	C 	0.74458 0.55991 0.52598 0.29400
C 	C 	0.65882 0.41439 0.83734 0.46800
C 	C 	0.58780 0.41072 0.79635 -0.27400
C 	C 	0.55460 0.47530 0.77340 0.13300
H 	H 	0.57600 0.52050 0.78380 -0.00100
C 	C 	0.49010 0.47294 0.73540 -0.14900
H 	H 	0.46830 0.51650 0.72040 0.09000
C 	C 	0.45762 0.40561 0.71922 0.03300
C 	C 	0.48998 0.34160 0.74214 -0.23100
H 	H 	0.46830 0.29650 0.73190 0.14100
C 	C 	0.55490 0.34369 0.78052 0.33800
C 	C 	0.38855 0.40398 0.67518 0.35500
Mn	Mn	0.72371 0.69334 0.41062 1.25700
Mn	Mn	0.72053 0.49140 0.40583 1.28700
O 	O 	0.73449 0.38399 0.36509 -0.51400
O 	O 	0.81773 0.52377 0.35421 -0.47600
O 	O 	0.72958 0.50278 0.01212 -0.41300
O 	O 	0.14147 0.53542 0.16259 -0.47200
O 	O 	0.78815 0.40360 0.97891 -0.55200
O 	O 	0.13283 0.65704 0.15352 -0.45200
O 	O 	0.77644 0.27736 0.32898 -0.49000
O 	O 	0.81121 0.64584 0.35187 -0.51600
O 	O 	0.81620 0.25589 0.20065 -0.47700
H 	H 	0.81560 0.24760 0.24340 0.30400
O 	O 	0.91470 0.72130 0.29960 -0.47200
H 	H 	0.87580 0.71370 0.31990 0.28700
C 	C 	0.75382 0.34154 0.31726 0.49200
C 	C 	0.75136 0.36426 0.24097 -0.29600
C 	C 	0.71670 0.42873 0.22184 0.14600
H 	H 	0.69310 0.45650 0.25640 -0.02300
C 	C 	0.71630 0.45305 0.15172 -0.15100
H 	H 	0.69300 0.49690 0.13980 0.09800
C 	C 	0.75070 0.41174 0.10006 0.02300
C 	C 	0.78366 0.34554 0.11779 -0.22700
H 	H 	0.80580 0.31720 0.08270 0.09400
C 	C 	0.78382 0.32117 0.18781 0.34300
C 	C 	0.75542 0.44009 0.02598 0.29700
C 	C 	0.84118 0.58561 0.33734 0.46900
C 	C 	0.91220 0.58928 0.29635 -0.27500
C 	C 	0.94540 0.52470 0.27340 0.13500
H 	H 	0.92400 0.47950 0.28380 -0.00100
C 	C 	0.00990 0.52706 0.23540 -0.15100
H 	H 	0.03170 0.48350 0.22040 0.09000
C 	C 	0.04238 0.59439 0.21922 0.03400
C 	C 	0.01002 0.65840 0.24214 -0.23300
H 	H 	0.03170 0.70350 0.23190 0.14100
C 	C 	0.94510 0.65631 0.28052 0.33900
C 	C 	0.11145 0.59602 0.17518 0.35500
Mn	Mn	0.22371 0.80666 0.58938 1.25700
Mn	Mn	0.22053 0.00860 0.59417 1.28600
O 	O 	0.23449 0.11601 0.63491 -0.51500
O 	O 	0.31773 0.97623 0.64579 -0.47500
O 	O 	0.22958 0.99722 0.98788 -0.40000
O 	O 	0.64147 0.96458 0.83741 -0.47000
O 	O 	0.28815 0.09640 0.02109 -0.54100
O 	O 	0.63283 0.84296 0.84648 -0.45100
O 	O 	0.27644 0.22264 0.67102 -0.49000
O 	O 	0.31121 0.85416 0.64813 -0.51600
O 	O 	0.31620 0.24411 0.79935 -0.47900
H 	H 	0.31560 0.25240 0.75660 0.30400
O 	O 	0.41470 0.77870 0.70040 -0.47100
H 	H 	0.37580 0.78630 0.68010 0.28700
C 	C 	0.25382 0.15846 0.68274 0.49300
C 	C 	0.25136 0.13574 0.75903 -0.29800
C 	C 	0.21670 0.07127 0.77816 0.14900
H 	H 	0.19310 0.04350 0.74360 -0.02500
C 	C 	0.21630 0.04695 0.84828 -0.15700
H 	H 	0.19300 0.00310 0.86020 0.09800
C 	C 	0.25070 0.08826 0.89994 0.03000
C 	C 	0.28366 0.15446 0.88221 -0.23300
H 	H 	0.30580 0.18280 0.91730 0.09400
C 	C 	0.28382 0.17883 0.81219 0.34500
C 	C 	0.25542 0.05991 0.97402 0.27500
C 	C 	0.34118 0.91439 0.66266 0.46900
C 	C 	0.41220 0.91072 0.70365 -0.27500
C 	C 	0.44540 0.97530 0.72660 0.13600
H 	H 	0.42400 0.02050 0.71620 -0.00400
C 	C 	0.50990 0.97294 0.76460 -0.14200
H 	H 	0.53170 0.01650 0.77960 0.08500
C 	C 	0.54238 0.90561 0.78078 0.03200
C 	C 	0.51002 0.84160 0.75786 -0.23000
H 	H 	0.53170 0.79650 0.76810 0.14100
C 	C 	0.44510 0.84369 0.71948 0.33800
C 	C 	0.61145 0.90398 0.82482 0.35600
Mn	Mn	0.27629 0.19334 0.08938 1.25800
Mn	Mn	0.27947 0.99140 0.09417 1.28400
O 	O 	0.26551 0.88399 0.13491 -0.51600
O 	O 	0.18227 0.02377 0.14579 -0.47400
O 	O 	0.27042 0.00278 0.48788 -0.41300
O 	O 	0.85853 0.03542 0.33741 -0.47100
O 	O 	0.21185 0.90360 0.52109 -0.55000
O 	O 	0.86717 0.15704 0.34648 -0.45200
O 	O 	0.22356 0.77736 0.17102 -0.49100
O 	O 	0.18879 0.14584 0.14813 -0.51500
O 	O 	0.18380 0.75589 0.29935 -0.47800
H 	H 	0.18440 0.74760 0.25660 0.30400
O 	O 	0.08530 0.22130 0.20040 -0.47000
H 	H 	0.12420 0.21370 0.18010 0.28700
C 	C 	0.24618 0.84154 0.18274 0.49200
C 	C 	0.24864 0.86426 0.25903 -0.29700
C 	C 	0.28330 0.92873 0.27816 0.14700
H 	H 	0.30690 0.95650 0.24360 -0.02400
C 	C 	0.28370 0.95305 0.34828 -0.15200
H 	H 	0.30700 0.99690 0.36020 0.09800
C 	C 	0.24930 0.91174 0.39994 0.02400
C 	C 	0.21634 0.84554 0.38221 -0.22800
H 	H 	0.19420 0.81720 0.41730 0.09300
C 	C 	0.21618 0.82117 0.31219 0.34300
C 	C 	0.24458 0.94009 0.47402 0.29400
C 	C 	0.15882 0.08561 0.16266 0.46600
C 	C 	0.08780 0.08928 0.20365 -0.26900
C 	C 	0.05460 0.02470 0.22660 0.12400
H 	H 	0.07600 0.97950 0.21620 0.00000
C 	C 	0.99010 0.02706 0.26460 -0.13000
H 	H 	0.96830 0.98350 0.27960 0.08000
C 	C 	0.95762 0.09439 0.28078 0.02500
C 	C 	0.98998 0.15840 0.25786 -0.22200
H 	H 	0.96830 0.20350 0.26810 0.13800
C 	C 	0.05490 0.15631 0.21948 0.33200
C 	C 	0.88855 0.09602 0.32482 0.35800
